 xtb: 6.7.1 (edcfbbe)
          04112516443D

 20 19  0     0  0            999 V2000
   -3.4403   -0.9714    0.3418 C   0  0  0  0  0  0  0  0  0  0  0  0
   -2.0869   -0.6812   -0.2940 C   0  0  0  0  0  0  0  0  0  0  0  0
   -1.3110    0.3728    0.5104 C   0  0  0  0  0  0  0  0  0  0  0  0
   -0.0031    0.6548   -0.1770 C   0  0  0  0  0  0  0  0  0  0  0  0
    0.1469    1.4400   -1.0919 O   0  0  0  0  0  0  0  0  0  0  0  0
    0.9795   -0.0892    0.3082 O   0  0  0  0  0  0  0  0  0  0  0  0
    2.2810    0.0411   -0.2895 C   0  0  0  0  0  0  0  0  0  0  0  0
    3.2667   -0.7572    0.5412 C   0  0  0  0  0  0  0  0  0  0  0  0
   -3.9732   -1.7196   -0.2384 H   0  0  0  0  0  0  0  0  0  0  0  0
   -3.3125   -1.3448    1.3544 H   0  0  0  0  0  0  0  0  0  0  0  0
   -4.0448   -0.0689    0.3796 H   0  0  0  0  0  0  0  0  0  0  0  0
   -2.2256   -0.3154   -1.3136 H   0  0  0  0  0  0  0  0  0  0  0  0
   -1.4969   -1.5985   -0.3412 H   0  0  0  0  0  0  0  0  0  0  0  0
   -1.1139    0.0015    1.5150 H   0  0  0  0  0  0  0  0  0  0  0  0
   -1.8891    1.2956    0.5538 H   0  0  0  0  0  0  0  0  0  0  0  0
    2.2248   -0.3285   -1.3186 H   0  0  0  0  0  0  0  0  0  0  0  0
    2.5406    1.1043   -0.3232 H   0  0  0  0  0  0  0  0  0  0  0  0
    3.2960   -0.3728    1.5564 H   0  0  0  0  0  0  0  0  0  0  0  0
    2.9681   -1.8008    0.5703 H   0  0  0  0  0  0  0  0  0  0  0  0
    4.2545   -0.6785    0.0994 H   0  0  0  0  0  0  0  0  0  0  0  0
  1  2  1  0  0  0  0
  2  3  1  0  0  0  0
  3  4  1  0  0  0  0
  4  5  2  0  0  0  0
  4  6  1  0  0  0  0
  6  7  1  0  0  0  0
  7  8  1  0  0  0  0
  1  9  1  0  0  0  0
  1 10  1  0  0  0  0
  1 11  1  0  0  0  0
  2 12  1  0  0  0  0
  2 13  1  0  0  0  0
  3 14  1  0  0  0  0
  3 15  1  0  0  0  0
  7 16  1  0  0  0  0
  7 17  1  0  0  0  0
  8 18  1  0  0  0  0
  8 19  1  0  0  0  0
  8 20  1  0  0  0  0
M  END
