20
 xtb: 6.7.1 (edcfbbe)
C           -3.63652829630276       -0.50687988905851        0.35398269768289
C           -2.27171107635025       -0.45914030706160       -0.32307255542719
C           -1.21765010538668        0.19124523088297        0.58826636478662
C            0.10895823213922        0.26816389588529       -0.10874241581032
O            0.32760978468158        0.96569154738388       -1.08754034528560
O            1.02808281899547       -0.54862853826029        0.44206866758775
C            2.36193116020757       -0.55463853970928       -0.16364168528816
C            3.19790992507627        0.58551881168824        0.37042147418242
H           -4.37965679977411       -0.97692145706009       -0.29757692828248
H           -3.59381792146816       -1.08092223696705        1.28589432293940
H           -3.98816279615705        0.50203121610121        0.59582051098955
H           -2.33454101598005        0.10873033693181       -1.25779873979124
H           -1.94482735172447       -1.47326901965912       -0.58210317252522
H           -1.12383565598914       -0.36875202427039        1.52186404977955
H           -1.52451390885020        1.21658593461231        0.82427143471986
H            2.77575616215069       -1.52309708757826        0.12349587405333
H            2.25516872454790       -0.51573862680866       -1.25047302075369
H            2.77096923991223        1.55476076577568        0.09892742780037
H            3.28373431683903        0.52640106869893        1.45925886031603
H            4.20356231347850        0.52142899705922       -0.05707844862450
