 xtb: 6.7.1 (edcfbbe)
          04112515533D

 20 19  0     0  0            999 V2000
   -2.3359   -1.2183    0.7437 C   0  0  0  0  0  0  0  0  0  0  0  0
   -2.5287    0.0496   -0.0795 C   0  0  0  0  0  0  0  0  0  0  0  0
   -1.3235    0.3229   -0.9860 C   0  0  0  0  0  0  0  0  0  0  0  0
   -0.1016    0.6437   -0.1647 C   0  0  0  0  0  0  0  0  0  0  0  0
   -0.0304    1.5326    0.6599 O   0  0  0  0  0  0  0  0  0  0  0  0
    0.9075   -0.1690   -0.4425 O   0  0  0  0  0  0  0  0  0  0  0  0
    2.1425    0.0221    0.2681 C   0  0  0  0  0  0  0  0  0  0  0  0
    3.0783   -1.1143   -0.0952 C   0  0  0  0  0  0  0  0  0  0  0  0
   -3.2127   -1.4088    1.3567 H   0  0  0  0  0  0  0  0  0  0  0  0
   -2.1738   -2.0748    0.0938 H   0  0  0  0  0  0  0  0  0  0  0  0
   -1.4745   -1.1172    1.4014 H   0  0  0  0  0  0  0  0  0  0  0  0
   -2.6643    0.9037    0.5868 H   0  0  0  0  0  0  0  0  0  0  0  0
   -3.4198   -0.0477   -0.7001 H   0  0  0  0  0  0  0  0  0  0  0  0
   -1.5331    1.1895   -1.6150 H   0  0  0  0  0  0  0  0  0  0  0  0
   -1.1038   -0.5389   -1.6147 H   0  0  0  0  0  0  0  0  0  0  0  0
    2.5559    0.9952   -0.0166 H   0  0  0  0  0  0  0  0  0  0  0  0
    1.9249    0.0460    1.3411 H   0  0  0  0  0  0  0  0  0  0  0  0
    4.0210   -0.9843    0.4259 H   0  0  0  0  0  0  0  0  0  0  0  0
    2.6383   -2.0652    0.1906 H   0  0  0  0  0  0  0  0  0  0  0  0
    3.2571   -1.1190   -1.1662 H   0  0  0  0  0  0  0  0  0  0  0  0
  1  2  1  0  0  0  0
  2  3  1  0  0  0  0
  3  4  1  0  0  0  0
  4  5  2  0  0  0  0
  4  6  1  0  0  0  0
  6  7  1  0  0  0  0
  7  8  1  0  0  0  0
  1  9  1  0  0  0  0
  1 10  1  0  0  0  0
  1 11  1  0  0  0  0
  2 12  1  0  0  0  0
  2 13  1  0  0  0  0
  3 14  1  0  0  0  0
  3 15  1  0  0  0  0
  7 16  1  0  0  0  0
  7 17  1  0  0  0  0
  8 18  1  0  0  0  0
  8 19  1  0  0  0  0
  8 20  1  0  0  0  0
M  END
