31
 xtb: 6.7.1 (edcfbbe)
C           -3.69504111389562        0.15096904891576        1.84700585886928
C           -3.05425911468635        0.59200665954846        0.52933753269219
H           -3.07300960302923        1.68345903610143        0.46077208007413
C           -1.60433687868313        0.14976587145483        0.40351818469740
C           -1.26765603238658       -1.22794867073813        0.46347461559588
C            0.03572288559761       -1.64306586547648        0.35465197453820
C            1.08690913565394       -0.70550628525538        0.18037053437973
C            2.43495242030202       -1.10042939059820        0.07077800274763
C            3.42955934176581       -0.15605203924146       -0.09651100718401
C            3.10974638966460        1.22071221592500       -0.16161619110366
C            1.79707329140108        1.62044789833337       -0.05625142322305
C            0.75214438460899        0.68479569643895        0.11599285686497
C           -0.60345814805855        1.07829661334537        0.22641885302045
O            4.71027775415608       -0.63628562714420       -0.19324488759286
C            5.77310378902231        0.31740483424371       -0.35287729751959
C           -3.79223533488418        0.10947649940769       -0.70300764331091
O           -3.79631125669038        0.70358806192392       -1.76841905475535
O           -4.42168764519040       -1.06921761124671       -0.52924781866103
H           -3.65623882755141       -0.93317396617277        1.97518134861758
H           -3.15789615677294        0.61472247038265        2.67883592472152
H           -4.74139513487747        0.46688782286959        1.89199671557440
H           -2.05404923355607       -1.96484086286156        0.59579987042583
H            0.27952662310100       -2.70064756991385        0.40121141987056
H            2.69682422257036       -2.15332393501929        0.11870705071796
H            3.88568399155633        1.96446253220349       -0.29398586471889
H            1.55241254547544        2.67768267426080       -0.10639489237009
H           -0.84477663315810        2.13709234971855        0.17447091268608
H            5.65576440860530        0.88747900142966       -1.28103088934680
H            6.68921709083473       -0.27231951006586       -0.40186762853914
H            5.82312611961178        0.99911465667745        0.50338862848323
H           -4.82787795362105       -1.32619083586219       -1.37586707832336
