16
 xtb: 6.7.1 (edcfbbe)
C            1.61886308947892       -0.78745506331889       -0.52805327750150
C            1.36277843106695        0.53332490757645        0.19685989288751
C           -0.01902393911107        0.66920374496741        0.84543963538936
C           -1.21248082255660        0.54144761166303       -0.11235155093563
N           -1.70283636768064       -0.82592906301008       -0.37977051382263
H            1.42512298005957       -1.64628596325599        0.12502236555483
H            0.99335334377237       -0.88979722268705       -1.42150040533034
H            2.66071456927156       -0.84971669267777       -0.86038053526349
H            2.12389021616013        0.66416431928859        0.97634065162483
H            1.50240409840540        1.36198863852681       -0.50997397407946
H           -0.13206855975379       -0.07494993681669        1.64672341828957
H           -0.06661265012930        1.65341078964309        1.32989762748898
H           -0.96058354674558        1.01210043720908       -1.07154917914827
H           -2.05549686967944        1.11176755104808        0.29333823663961
H           -1.93971327851910       -1.24610838814676        0.51526138843489
H           -0.93324000510525       -1.38677503213840       -0.72988580587093
