17
 xtb: 6.7.1 (edcfbbe)
C            3.29595006605419        0.34848110772052       -0.17229922741250
C            2.29781714720767       -0.67993627183302        0.35665653304159
C            0.90230946705208       -0.56255926284548       -0.26150767751510
C            0.20695554555708        0.75971759703725        0.05528470985127
C           -1.17959440552549        0.89115651013119       -0.52897366397990
Cl          -2.36292756243415       -0.32001607665081        0.22012102009821
H            3.00836564485086        1.37049964039668        0.09455485653094
H            3.36839829721670        0.29617514534414       -1.26504227889358
H            4.29556355348014        0.17217845160759        0.23815152585277
H            2.68281013171099       -1.68778077977945        0.15957935547876
H            2.21576572401013       -0.58660130212585        1.44769577069551
H            0.28155240589828       -1.38869997651987        0.10443989610822
H            0.97357771474454       -0.67787878800843       -1.35201108704160
H            0.77787431149217        1.59569790765790       -0.37181007467159
H            0.17226327969131        0.92386843173636        1.13959453126960
H           -1.61737003526844        1.87080877089595       -0.33325353954977
H           -1.19640548267886        0.68513113186918       -1.60130535160019
