 xtb: 6.7.1 (edcfbbe)
          04112513513D

 31 32  0     0  0            999 V2000
   -3.8186    0.9262   -1.6275 C   0  0  0  0  0  0  0  0  0  0  0  0
   -3.3078   -0.1271   -0.6428 C   0  0  0  0  0  0  0  0  0  0  0  0
   -3.5655   -1.1288   -0.9973 H   0  0  0  0  0  0  0  0  0  0  0  0
   -1.8083   -0.0496   -0.4567 C   0  0  0  0  0  0  0  0  0  0  0  0
   -1.1956    1.1157   -0.0089 C   0  0  0  0  0  0  0  0  0  0  0  0
    0.1740    1.1762    0.1540 C   0  0  0  0  0  0  0  0  0  0  0  0
    0.9909    0.0776   -0.1118 C   0  0  0  0  0  0  0  0  0  0  0  0
    0.3509   -1.0749   -0.5541 C   0  0  0  0  0  0  0  0  0  0  0  0
   -1.0158   -1.1556   -0.7295 C   0  0  0  0  0  0  0  0  0  0  0  0
    1.0880   -2.1835   -0.8616 F   0  0  0  0  0  0  0  0  0  0  0  0
    2.4489    0.1549    0.0706 C   0  0  0  0  0  0  0  0  0  0  0  0
    3.1479   -0.8657    0.7093 C   0  0  0  0  0  0  0  0  0  0  0  0
    4.5167   -0.7726    0.8837 C   0  0  0  0  0  0  0  0  0  0  0  0
    5.2051    0.3363    0.4209 C   0  0  0  0  0  0  0  0  0  0  0  0
    4.5172    1.3561   -0.2164 C   0  0  0  0  0  0  0  0  0  0  0  0
    3.1484    1.2691   -0.3881 C   0  0  0  0  0  0  0  0  0  0  0  0
   -3.9283    0.0229    0.7335 C   0  0  0  0  0  0  0  0  0  0  0  0
   -4.2497   -0.9203    1.4261 O   0  0  0  0  0  0  0  0  0  0  0  0
   -4.0554    1.2738    1.1264 O   0  0  0  0  0  0  0  0  0  0  0  0
   -4.8894    0.8105   -1.7724 H   0  0  0  0  0  0  0  0  0  0  0  0
   -3.6227    1.9275   -1.2585 H   0  0  0  0  0  0  0  0  0  0  0  0
   -3.3185    0.7975   -2.5832 H   0  0  0  0  0  0  0  0  0  0  0  0
   -1.7961    1.9808    0.2225 H   0  0  0  0  0  0  0  0  0  0  0  0
    0.6316    2.0842    0.5140 H   0  0  0  0  0  0  0  0  0  0  0  0
   -1.4439   -2.0815   -1.0800 H   0  0  0  0  0  0  0  0  0  0  0  0
    2.6166   -1.7294    1.0812 H   0  0  0  0  0  0  0  0  0  0  0  0
    5.0465   -1.5695    1.3836 H   0  0  0  0  0  0  0  0  0  0  0  0
    6.2738    0.4045    0.5555 H   0  0  0  0  0  0  0  0  0  0  0  0
    5.0498    2.2208   -0.5821 H   0  0  0  0  0  0  0  0  0  0  0  0
    2.6161    2.0573   -0.8988 H   0  0  0  0  0  0  0  0  0  0  0  0
   -4.4332    1.3531    2.0240 H   0  0  0  0  0  0  0  0  0  0  0  0
  1  2  1  0  0  0  0
  2  3  1  0  0  0  0
  2  4  1  0  0  0  0
  4  5  4  0  0  0  0
  5  6  4  0  0  0  0
  6  7  4  0  0  0  0
  7  8  4  0  0  0  0
  4  9  4  0  0  0  0
  8  9  4  0  0  0  0
  8 10  1  0  0  0  0
  7 11  1  0  0  0  0
 11 12  4  0  0  0  0
 12 13  4  0  0  0  0
 13 14  4  0  0  0  0
 14 15  4  0  0  0  0
 11 16  4  0  0  0  0
 15 16  4  0  0  0  0
  2 17  1  0  0  0  0
 17 18  2  0  0  0  0
 17 19  1  0  0  0  0
  1 20  1  0  0  0  0
  1 21  1  0  0  0  0
  1 22  1  0  0  0  0
  5 23  1  0  0  0  0
  6 24  1  0  0  0  0
  9 25  1  0  0  0  0
 12 26  1  0  0  0  0
 13 27  1  0  0  0  0
 14 28  1  0  0  0  0
 15 29  1  0  0  0  0
 16 30  1  0  0  0  0
 19 31  1  0  0  0  0
M  END
