 xtb: 6.7.1 (edcfbbe)
          04112512293D

 16 15  0     0  0            999 V2000
    1.9487   -0.7165    0.1468 C   0  0  0  0  0  0  0  0  0  0  0  0
    1.1251    0.3482   -0.5691 C   0  0  0  0  0  0  0  0  0  0  0  0
    0.0255    0.9496    0.3092 C   0  0  0  0  0  0  0  0  0  0  0  0
   -1.1125   -0.0253    0.6549 C   0  0  0  0  0  0  0  0  0  0  0  0
   -1.9119   -0.4859   -0.4697 N   0  0  0  0  0  0  0  0  0  0  0  0
    2.7551   -1.0625   -0.4956 H   0  0  0  0  0  0  0  0  0  0  0  0
    2.3840   -0.3097    1.0568 H   0  0  0  0  0  0  0  0  0  0  0  0
    1.3359   -1.5739    0.4129 H   0  0  0  0  0  0  0  0  0  0  0  0
    1.7902    1.1549   -0.8864 H   0  0  0  0  0  0  0  0  0  0  0  0
    0.6840   -0.0798   -1.4729 H   0  0  0  0  0  0  0  0  0  0  0  0
    0.4681    1.3059    1.2413 H   0  0  0  0  0  0  0  0  0  0  0  0
   -0.4050    1.8137   -0.2055 H   0  0  0  0  0  0  0  0  0  0  0  0
   -1.7939    0.4697    1.3532 H   0  0  0  0  0  0  0  0  0  0  0  0
   -0.7091   -0.9080    1.1555 H   0  0  0  0  0  0  0  0  0  0  0  0
   -1.3258   -0.9977   -1.1206 H   0  0  0  0  0  0  0  0  0  0  0  0
   -2.2891    0.3140   -0.9677 H   0  0  0  0  0  0  0  0  0  0  0  0
  1  2  1  0  0  0  0
  2  3  1  0  0  0  0
  3  4  1  0  0  0  0
  4  5  1  0  0  0  0
  1  6  1  0  0  0  0
  1  7  1  0  0  0  0
  1  8  1  0  0  0  0
  2  9  1  0  0  0  0
  2 10  1  0  0  0  0
  3 11  1  0  0  0  0
  3 12  1  0  0  0  0
  4 13  1  0  0  0  0
  4 14  1  0  0  0  0
  5 15  1  0  0  0  0
  5 16  1  0  0  0  0
M  END
