 xtb: 6.7.1 (edcfbbe)
          04112512333D

 13 13  0     0  0            999 V2000
   -1.9896    0.6615   -0.5494 C   0  0  0  0  0  0  0  0  0  0  0  0
   -1.4882   -0.5860    0.1676 C   0  0  0  0  0  0  0  0  0  0  0  0
   -0.2175   -0.3038    0.9765 C   0  0  0  0  0  0  0  0  0  0  0  0
    0.8873   -0.0142    0.0698 N   0  0  0  0  0  0  0  0  0  0  0  0
    1.4018    1.0847    0.1219 O   0  0  0  0  0  0  0  0  0  0  0  0
    1.2321   -0.8844   -0.7033 O   0  0  0  0  0  0  0  0  0  0  0  0
   -2.9007    0.4374   -1.0965 H   0  0  0  0  0  0  0  0  0  0  0  0
   -2.2024    1.4551    0.1624 H   0  0  0  0  0  0  0  0  0  0  0  0
   -1.2508    1.0287   -1.2598 H   0  0  0  0  0  0  0  0  0  0  0  0
   -1.2737   -1.3738   -0.5566 H   0  0  0  0  0  0  0  0  0  0  0  0
   -2.2524   -0.9481    0.8541 H   0  0  0  0  0  0  0  0  0  0  0  0
   -0.3432    0.5591    1.6311 H   0  0  0  0  0  0  0  0  0  0  0  0
    0.0548   -1.1928    1.5484 H   0  0  0  0  0  0  0  0  0  0  0  0
  1  2  1  0  0  0  0
  2  3  1  0  0  0  0
  3  4  1  0  0  0  0
  4  5  4  0  0  0  0
  4  6  4  0  0  0  0
  5  6  1  0  0  0  0
  1  7  1  0  0  0  0
  1  8  1  0  0  0  0
  1  9  1  0  0  0  0
  2 10  1  0  0  0  0
  2 11  1  0  0  0  0
  3 12  1  0  0  0  0
  3 13  1  0  0  0  0
M  END
