 xtb: 6.7.1 (edcfbbe)
          04112512243D

 22 21  0     0  0            999 V2000
    2.3858    0.6227    0.6244 C   0  0  0  0  0  0  0  0  0  0  0  0
    1.1331   -0.1328    0.1730 C   0  0  0  0  0  0  0  0  0  0  0  0
    1.3365   -0.6526   -1.2587 C   0  0  0  0  0  0  0  0  0  0  0  0
    0.0037    0.7620    0.3628 N   0  0  0  0  0  0  0  0  0  0  0  0
   -1.3729    0.2901    0.2786 C   0  0  0  0  0  0  0  0  0  0  0  0
   -1.5827   -0.9971    1.0716 C   0  0  0  0  0  0  0  0  0  0  0  0
   -1.9261    0.1376   -1.1481 C   0  0  0  0  0  0  0  0  0  0  0  0
    2.2349    1.0248    1.6218 H   0  0  0  0  0  0  0  0  0  0  0  0
    3.2455   -0.0413    0.6369 H   0  0  0  0  0  0  0  0  0  0  0  0
    2.5923    1.4477   -0.0539 H   0  0  0  0  0  0  0  0  0  0  0  0
    0.9892   -0.9866    0.8421 H   0  0  0  0  0  0  0  0  0  0  0  0
    1.3277    0.1753   -1.9656 H   0  0  0  0  0  0  0  0  0  0  0  0
    0.5597   -1.3585   -1.5396 H   0  0  0  0  0  0  0  0  0  0  0  0
    2.2952   -1.1599   -1.3336 H   0  0  0  0  0  0  0  0  0  0  0  0
    0.1139    1.5758   -0.2330 H   0  0  0  0  0  0  0  0  0  0  0  0
   -1.9592    1.0836    0.7664 H   0  0  0  0  0  0  0  0  0  0  0  0
   -1.1275   -1.8459    0.5668 H   0  0  0  0  0  0  0  0  0  0  0  0
   -1.1505   -0.9000    2.0637 H   0  0  0  0  0  0  0  0  0  0  0  0
   -2.6472   -1.1908    1.1719 H   0  0  0  0  0  0  0  0  0  0  0  0
   -1.7146    1.0299   -1.7344 H   0  0  0  0  0  0  0  0  0  0  0  0
   -3.0040    0.0012   -1.1093 H   0  0  0  0  0  0  0  0  0  0  0  0
   -1.4930   -0.7206   -1.6541 H   0  0  0  0  0  0  0  0  0  0  0  0
  1  2  1  0  0  0  0
  2  3  1  0  0  0  0
  2  4  1  0  0  0  0
  4  5  1  0  0  0  0
  5  6  1  0  0  0  0
  5  7  1  0  0  0  0
  1  8  1  0  0  0  0
  1  9  1  0  0  0  0
  1 10  1  0  0  0  0
  2 11  1  0  0  0  0
  3 12  1  0  0  0  0
  3 13  1  0  0  0  0
  3 14  1  0  0  0  0
  4 15  1  0  0  0  0
  5 16  1  0  0  0  0
  6 17  1  0  0  0  0
  6 18  1  0  0  0  0
  6 19  1  0  0  0  0
  7 20  1  0  0  0  0
  7 21  1  0  0  0  0
  7 22  1  0  0  0  0
M  END
