 xtb: 6.7.1 (edcfbbe)
          04112516443D

 20 19  0     0  0            999 V2000
   -3.4623   -0.9425    0.3527 C   0  0  0  0  0  0  0  0  0  0  0  0
   -2.1249   -0.2737    0.6430 C   0  0  0  0  0  0  0  0  0  0  0  0
   -1.2893   -0.1260   -0.6376 C   0  0  0  0  0  0  0  0  0  0  0  0
   -0.0013    0.5787   -0.3094 C   0  0  0  0  0  0  0  0  0  0  0  0
    0.1286    1.7834   -0.2219 O   0  0  0  0  0  0  0  0  0  0  0  0
    0.9850   -0.2770   -0.0871 O   0  0  0  0  0  0  0  0  0  0  0  0
    2.2716    0.2503    0.2800 C   0  0  0  0  0  0  0  0  0  0  0  0
    3.3019   -0.8506    0.1170 C   0  0  0  0  0  0  0  0  0  0  0  0
   -4.0377   -1.0410    1.2691 H   0  0  0  0  0  0  0  0  0  0  0  0
   -4.0382   -0.3513   -0.3545 H   0  0  0  0  0  0  0  0  0  0  0  0
   -3.3089   -1.9327   -0.0681 H   0  0  0  0  0  0  0  0  0  0  0  0
   -1.5646   -0.8680    1.3674 H   0  0  0  0  0  0  0  0  0  0  0  0
   -2.2893    0.7165    1.0730 H   0  0  0  0  0  0  0  0  0  0  0  0
   -1.8397    0.4728   -1.3630 H   0  0  0  0  0  0  0  0  0  0  0  0
   -1.0643   -1.1083   -1.0501 H   0  0  0  0  0  0  0  0  0  0  0  0
    2.4874    1.1125   -0.3595 H   0  0  0  0  0  0  0  0  0  0  0  0
    2.2143    0.5982    1.3165 H   0  0  0  0  0  0  0  0  0  0  0  0
    3.3384   -1.1784   -0.9177 H   0  0  0  0  0  0  0  0  0  0  0  0
    4.2772   -0.4748    0.4081 H   0  0  0  0  0  0  0  0  0  0  0  0
    3.0412   -1.6979    0.7441 H   0  0  0  0  0  0  0  0  0  0  0  0
  1  2  1  0  0  0  0
  2  3  1  0  0  0  0
  3  4  1  0  0  0  0
  4  5  2  0  0  0  0
  4  6  1  0  0  0  0
  6  7  1  0  0  0  0
  7  8  1  0  0  0  0
  1  9  1  0  0  0  0
  1 10  1  0  0  0  0
  1 11  1  0  0  0  0
  2 12  1  0  0  0  0
  2 13  1  0  0  0  0
  3 14  1  0  0  0  0
  3 15  1  0  0  0  0
  7 16  1  0  0  0  0
  7 17  1  0  0  0  0
  8 18  1  0  0  0  0
  8 19  1  0  0  0  0
  8 20  1  0  0  0  0
M  END
