14
 xtb: 6.7.1 (edcfbbe)
C           -3.89383912677642       -0.83352992707572       -0.51877325206828
C           -3.30597476128944       -0.00828420033105        0.62384816477213
C           -1.79384143179828       -0.20463282475715        0.82421626486003
C           -1.01684110532211        0.29132017059770       -0.37422949291211
I            1.15344860125299        0.08945783648125       -0.06025219329021
H           -3.66309517121414       -1.89726585796190       -0.39079331185375
H           -4.98290865992217       -0.72863260982898       -0.55244317203592
H           -3.50462650297835       -0.52024015215690       -1.49267104132486
H           -3.80082335134788       -0.28418878409285        1.56239736630558
H           -3.51411962997829        1.05655788286506        0.46136703834577
H           -1.47663812379690        0.34164707483750        1.71862289093770
H           -1.58244303332701       -1.26655571905499        0.99474742434874
H           -1.15992078145544        1.35545043794079       -0.56342845965276
H           -1.19272295571998       -0.28360151536461       -1.28208863121953
