 xtb: 6.7.1 (edcfbbe)
          04112517463D

 20 19  0     0  0            999 V2000
   -2.4624   -1.0338    0.9151 C   0  0  0  0  0  0  0  0  0  0  0  0
   -2.5567    0.0734   -0.1277 C   0  0  0  0  0  0  0  0  0  0  0  0
   -1.3003    0.1323   -1.0017 C   0  0  0  0  0  0  0  0  0  0  0  0
   -0.1011    0.5607   -0.1957 C   0  0  0  0  0  0  0  0  0  0  0  0
   -0.0559    1.5392    0.5220 O   0  0  0  0  0  0  0  0  0  0  0  0
    0.9245   -0.2620   -0.3638 O   0  0  0  0  0  0  0  0  0  0  0  0
    2.1479    0.0359    0.3303 C   0  0  0  0  0  0  0  0  0  0  0  0
    3.2107   -0.9353   -0.1452 C   0  0  0  0  0  0  0  0  0  0  0  0
   -1.6246   -0.8522    1.5859 H   0  0  0  0  0  0  0  0  0  0  0  0
   -3.3719   -1.0742    1.5083 H   0  0  0  0  0  0  0  0  0  0  0  0
   -2.3172   -1.9991    0.4361 H   0  0  0  0  0  0  0  0  0  0  0  0
   -2.6800    1.0369    0.3704 H   0  0  0  0  0  0  0  0  0  0  0  0
   -3.4230   -0.0974   -0.7671 H   0  0  0  0  0  0  0  0  0  0  0  0
   -1.4415    0.8732   -1.7907 H   0  0  0  0  0  0  0  0  0  0  0  0
   -1.0876   -0.8363   -1.4524 H   0  0  0  0  0  0  0  0  0  0  0  0
    2.4201    1.0758    0.1213 H   0  0  0  0  0  0  0  0  0  0  0  0
    1.9648   -0.0580    1.4058 H   0  0  0  0  0  0  0  0  0  0  0  0
    4.1418   -0.7308    0.3728 H   0  0  0  0  0  0  0  0  0  0  0  0
    2.9006   -1.9551    0.0618 H   0  0  0  0  0  0  0  0  0  0  0  0
    3.3633   -0.8257   -1.2148 H   0  0  0  0  0  0  0  0  0  0  0  0
  1  2  1  0  0  0  0
  2  3  1  0  0  0  0
  3  4  1  0  0  0  0
  4  5  2  0  0  0  0
  4  6  1  0  0  0  0
  6  7  1  0  0  0  0
  7  8  1  0  0  0  0
  1  9  1  0  0  0  0
  1 10  1  0  0  0  0
  1 11  1  0  0  0  0
  2 12  1  0  0  0  0
  2 13  1  0  0  0  0
  3 14  1  0  0  0  0
  3 15  1  0  0  0  0
  7 16  1  0  0  0  0
  7 17  1  0  0  0  0
  8 18  1  0  0  0  0
  8 19  1  0  0  0  0
  8 20  1  0  0  0  0
M  END
