 xtb: 6.7.1 (edcfbbe)
          04112512433D

 16 15  0     0  0            999 V2000
    2.4329   -0.2531    0.1398 C   0  0  0  0  0  0  0  0  0  0  0  0
    1.0141    0.2342    0.4095 C   0  0  0  0  0  0  0  0  0  0  0  0
    0.0624   -0.1415   -0.7252 C   0  0  0  0  0  0  0  0  0  0  0  0
   -1.3630    0.3944   -0.5169 C   0  0  0  0  0  0  0  0  0  0  0  0
   -2.0929   -0.1697    0.6078 N   0  0  0  0  0  0  0  0  0  0  0  0
    2.8187    0.1883   -0.7763 H   0  0  0  0  0  0  0  0  0  0  0  0
    3.0931    0.0213    0.9589 H   0  0  0  0  0  0  0  0  0  0  0  0
    2.4502   -1.3354    0.0314 H   0  0  0  0  0  0  0  0  0  0  0  0
    0.6622   -0.2017    1.3477 H   0  0  0  0  0  0  0  0  0  0  0  0
    1.0186    1.3205    0.5280 H   0  0  0  0  0  0  0  0  0  0  0  0
    0.4475    0.2630   -1.6633 H   0  0  0  0  0  0  0  0  0  0  0  0
    0.0254   -1.2301   -0.8232 H   0  0  0  0  0  0  0  0  0  0  0  0
   -1.9522    0.1930   -1.4165 H   0  0  0  0  0  0  0  0  0  0  0  0
   -1.3266    1.4780   -0.3746 H   0  0  0  0  0  0  0  0  0  0  0  0
   -1.6117    0.0481    1.4736 H   0  0  0  0  0  0  0  0  0  0  0  0
   -2.1191   -1.1806    0.5215 H   0  0  0  0  0  0  0  0  0  0  0  0
  1  2  1  0  0  0  0
  2  3  1  0  0  0  0
  3  4  1  0  0  0  0
  4  5  1  0  0  0  0
  1  6  1  0  0  0  0
  1  7  1  0  0  0  0
  1  8  1  0  0  0  0
  2  9  1  0  0  0  0
  2 10  1  0  0  0  0
  3 11  1  0  0  0  0
  3 12  1  0  0  0  0
  4 13  1  0  0  0  0
  4 14  1  0  0  0  0
  5 15  1  0  0  0  0
  5 16  1  0  0  0  0
M  END
