 xtb: 6.7.1 (edcfbbe)
          04112515543D

 17 16  0     0  0            999 V2000
    2.9168   -0.0335   -0.6708 C   0  0  0  0  0  0  0  0  0  0  0  0
    1.8827   -0.6995    0.2303 C   0  0  0  0  0  0  0  0  0  0  0  0
    0.9636    0.2967    0.9400 C   0  0  0  0  0  0  0  0  0  0  0  0
    0.1175    1.1706    0.0117 C   0  0  0  0  0  0  0  0  0  0  0  0
   -0.8666    0.3961   -0.8462 C   0  0  0  0  0  0  0  0  0  0  0  0
   -2.0860   -0.4602    0.1662 Cl  0  0  0  0  0  0  0  0  0  0  0  0
    3.4795    0.7128   -0.1147 H   0  0  0  0  0  0  0  0  0  0  0  0
    2.4447    0.4510   -1.5212 H   0  0  0  0  0  0  0  0  0  0  0  0
    3.6149   -0.7755   -1.0509 H   0  0  0  0  0  0  0  0  0  0  0  0
    1.2884   -1.4050   -0.3528 H   0  0  0  0  0  0  0  0  0  0  0  0
    2.4033   -1.2773    0.9975 H   0  0  0  0  0  0  0  0  0  0  0  0
    1.5745    0.9554    1.5605 H   0  0  0  0  0  0  0  0  0  0  0  0
    0.2959   -0.2565    1.6040 H   0  0  0  0  0  0  0  0  0  0  0  0
    0.7663    1.7309   -0.6626 H   0  0  0  0  0  0  0  0  0  0  0  0
   -0.4337    1.8902    0.6199 H   0  0  0  0  0  0  0  0  0  0  0  0
   -1.4340    1.0625   -1.4930 H   0  0  0  0  0  0  0  0  0  0  0  0
   -0.3766   -0.3717   -1.4405 H   0  0  0  0  0  0  0  0  0  0  0  0
  1  2  1  0  0  0  0
  2  3  1  0  0  0  0
  3  4  1  0  0  0  0
  4  5  1  0  0  0  0
  5  6  1  0  0  0  0
  1  7  1  0  0  0  0
  1  8  1  0  0  0  0
  1  9  1  0  0  0  0
  2 10  1  0  0  0  0
  2 11  1  0  0  0  0
  3 12  1  0  0  0  0
  3 13  1  0  0  0  0
  4 14  1  0  0  0  0
  4 15  1  0  0  0  0
  5 16  1  0  0  0  0
  5 17  1  0  0  0  0
M  END
