 xtb: 6.7.1 (edcfbbe)
          04112515533D

 20 19  0     0  0            999 V2000
   -2.1084   -1.5372    0.0202 C   0  0  0  0  0  0  0  0  0  0  0  0
   -2.4259   -0.0497    0.1123 C   0  0  0  0  0  0  0  0  0  0  0  0
   -1.3852    0.7968   -0.6286 C   0  0  0  0  0  0  0  0  0  0  0  0
   -0.0418    0.7029    0.0486 C   0  0  0  0  0  0  0  0  0  0  0  0
    0.1638    0.9572    1.2172 O   0  0  0  0  0  0  0  0  0  0  0  0
    0.9047    0.3147   -0.7973 O   0  0  0  0  0  0  0  0  0  0  0  0
    2.2465    0.1623   -0.3053 C   0  0  0  0  0  0  0  0  0  0  0  0
    2.4631   -1.2289    0.2704 C   0  0  0  0  0  0  0  0  0  0  0  0
   -2.8734   -2.1198    0.5264 H   0  0  0  0  0  0  0  0  0  0  0  0
   -2.0612   -1.8544   -1.0188 H   0  0  0  0  0  0  0  0  0  0  0  0
   -1.1498   -1.7510    0.4891 H   0  0  0  0  0  0  0  0  0  0  0  0
   -2.4441    0.2584    1.1595 H   0  0  0  0  0  0  0  0  0  0  0  0
   -3.4079    0.1435   -0.3201 H   0  0  0  0  0  0  0  0  0  0  0  0
   -1.6897    1.8445   -0.6079 H   0  0  0  0  0  0  0  0  0  0  0  0
   -1.2783    0.4702   -1.6622 H   0  0  0  0  0  0  0  0  0  0  0  0
    2.8804    0.3347   -1.1756 H   0  0  0  0  0  0  0  0  0  0  0  0
    2.4281    0.9270    0.4560 H   0  0  0  0  0  0  0  0  0  0  0  0
    1.8317   -1.3728    1.1447 H   0  0  0  0  0  0  0  0  0  0  0  0
    2.2182   -1.9834   -0.4723 H   0  0  0  0  0  0  0  0  0  0  0  0
    3.5015   -1.3391    0.5654 H   0  0  0  0  0  0  0  0  0  0  0  0
  1  2  1  0  0  0  0
  2  3  1  0  0  0  0
  3  4  1  0  0  0  0
  4  5  2  0  0  0  0
  4  6  1  0  0  0  0
  6  7  1  0  0  0  0
  7  8  1  0  0  0  0
  1  9  1  0  0  0  0
  1 10  1  0  0  0  0
  1 11  1  0  0  0  0
  2 12  1  0  0  0  0
  2 13  1  0  0  0  0
  3 14  1  0  0  0  0
  3 15  1  0  0  0  0
  7 16  1  0  0  0  0
  7 17  1  0  0  0  0
  8 18  1  0  0  0  0
  8 19  1  0  0  0  0
  8 20  1  0  0  0  0
M  END
