 xtb: 6.7.1 (edcfbbe)
          04112515593D

 20 19  0     0  0            999 V2000
   -2.2911   -1.2470    0.5840 C   0  0  0  0  0  0  0  0  0  0  0  0
   -1.9738   -0.3137   -0.5794 C   0  0  0  0  0  0  0  0  0  0  0  0
   -1.5660    1.0923   -0.1361 C   0  0  0  0  0  0  0  0  0  0  0  0
   -0.2971    1.1139    0.7270 C   0  0  0  0  0  0  0  0  0  0  0  0
    0.8582    0.5075   -0.0235 C   0  0  0  0  0  0  0  0  0  0  0  0
    1.3470    0.9584   -1.0384 O   0  0  0  0  0  0  0  0  0  0  0  0
    1.2909   -0.6085    0.5548 O   0  0  0  0  0  0  0  0  0  0  0  0
    2.3823   -1.2951   -0.0623 C   0  0  0  0  0  0  0  0  0  0  0  0
   -2.6896   -2.1868    0.2102 H   0  0  0  0  0  0  0  0  0  0  0  0
   -1.3974   -1.4663    1.1623 H   0  0  0  0  0  0  0  0  0  0  0  0
   -3.0319   -0.7959    1.2397 H   0  0  0  0  0  0  0  0  0  0  0  0
   -1.1744   -0.7457   -1.1874 H   0  0  0  0  0  0  0  0  0  0  0  0
   -2.8559   -0.2251   -1.2171 H   0  0  0  0  0  0  0  0  0  0  0  0
   -2.3788    1.5432    0.4345 H   0  0  0  0  0  0  0  0  0  0  0  0
   -1.3890    1.7028   -1.0239 H   0  0  0  0  0  0  0  0  0  0  0  0
   -0.4431    0.5629    1.6536 H   0  0  0  0  0  0  0  0  0  0  0  0
   -0.0440    2.1501    0.9541 H   0  0  0  0  0  0  0  0  0  0  0  0
    2.6292   -2.1149    0.6048 H   0  0  0  0  0  0  0  0  0  0  0  0
    3.2281   -0.6176   -0.1841 H   0  0  0  0  0  0  0  0  0  0  0  0
    2.0820   -1.6661   -1.0430 H   0  0  0  0  0  0  0  0  0  0  0  0
  1  2  1  0  0  0  0
  2  3  1  0  0  0  0
  3  4  1  0  0  0  0
  4  5  1  0  0  0  0
  5  6  2  0  0  0  0
  5  7  1  0  0  0  0
  7  8  1  0  0  0  0
  1  9  1  0  0  0  0
  1 10  1  0  0  0  0
  1 11  1  0  0  0  0
  2 12  1  0  0  0  0
  2 13  1  0  0  0  0
  3 14  1  0  0  0  0
  3 15  1  0  0  0  0
  4 16  1  0  0  0  0
  4 17  1  0  0  0  0
  8 18  1  0  0  0  0
  8 19  1  0  0  0  0
  8 20  1  0  0  0  0
M  END
