 xtb: 6.7.1 (edcfbbe)
          04112515593D

 20 19  0     0  0            999 V2000
   -3.5752   -1.0498    0.4142 C   0  0  0  0  0  0  0  0  0  0  0  0
   -2.6741    0.1267    0.0584 C   0  0  0  0  0  0  0  0  0  0  0  0
   -1.1975   -0.2610    0.1125 C   0  0  0  0  0  0  0  0  0  0  0  0
   -0.2993    0.9181   -0.2486 C   0  0  0  0  0  0  0  0  0  0  0  0
    1.1753    0.6147   -0.2154 C   0  0  0  0  0  0  0  0  0  0  0  0
    2.0391    1.4278   -0.4818 O   0  0  0  0  0  0  0  0  0  0  0  0
    1.4471   -0.6342    0.1363 O   0  0  0  0  0  0  0  0  0  0  0  0
    2.8225   -1.0184    0.1981 C   0  0  0  0  0  0  0  0  0  0  0  0
   -3.4196   -1.8721   -0.2801 H   0  0  0  0  0  0  0  0  0  0  0  0
   -3.3586   -1.4050    1.4189 H   0  0  0  0  0  0  0  0  0  0  0  0
   -4.6209   -0.7564    0.3710 H   0  0  0  0  0  0  0  0  0  0  0  0
   -2.9190    0.4804   -0.9451 H   0  0  0  0  0  0  0  0  0  0  0  0
   -2.8583    0.9479    0.7540 H   0  0  0  0  0  0  0  0  0  0  0  0
   -1.0113   -1.0839   -0.5794 H   0  0  0  0  0  0  0  0  0  0  0  0
   -0.9494   -0.6123    1.1152 H   0  0  0  0  0  0  0  0  0  0  0  0
   -0.4679    1.7546    0.4341 H   0  0  0  0  0  0  0  0  0  0  0  0
   -0.5273    1.2841   -1.2527 H   0  0  0  0  0  0  0  0  0  0  0  0
    3.3568   -0.3824    0.9048 H   0  0  0  0  0  0  0  0  0  0  0  0
    3.2826   -0.9176   -0.7855 H   0  0  0  0  0  0  0  0  0  0  0  0
    2.8218   -2.0533    0.5252 H   0  0  0  0  0  0  0  0  0  0  0  0
  1  2  1  0  0  0  0
  2  3  1  0  0  0  0
  3  4  1  0  0  0  0
  4  5  1  0  0  0  0
  5  6  2  0  0  0  0
  5  7  1  0  0  0  0
  7  8  1  0  0  0  0
  1  9  1  0  0  0  0
  1 10  1  0  0  0  0
  1 11  1  0  0  0  0
  2 12  1  0  0  0  0
  2 13  1  0  0  0  0
  3 14  1  0  0  0  0
  3 15  1  0  0  0  0
  4 16  1  0  0  0  0
  4 17  1  0  0  0  0
  8 18  1  0  0  0  0
  8 19  1  0  0  0  0
  8 20  1  0  0  0  0
M  END
