 xtb: 6.7.1 (edcfbbe)
          04112516003D

 17 16  0     0  0            999 V2000
    2.9437    0.1692    0.5939 C   0  0  0  0  0  0  0  0  0  0  0  0
    1.8818   -0.7516    0.0026 C   0  0  0  0  0  0  0  0  0  0  0  0
    0.9496   -0.0475   -0.9854 C   0  0  0  0  0  0  0  0  0  0  0  0
    0.1264    1.0983   -0.3931 C   0  0  0  0  0  0  0  0  0  0  0  0
   -0.8479    0.6693    0.6891 C   0  0  0  0  0  0  0  0  0  0  0  0
   -2.0925   -0.4602    0.0399 Cl  0  0  0  0  0  0  0  0  0  0  0  0
    3.4956    0.6693   -0.1986 H   0  0  0  0  0  0  0  0  0  0  0  0
    3.6474   -0.4064    1.1905 H   0  0  0  0  0  0  0  0  0  0  0  0
    2.4977    0.9242    1.2355 H   0  0  0  0  0  0  0  0  0  0  0  0
    2.3783   -1.5659   -0.5302 H   0  0  0  0  0  0  0  0  0  0  0  0
    1.2997   -1.2039    0.8071 H   0  0  0  0  0  0  0  0  0  0  0  0
    0.2657   -0.7869   -1.4079 H   0  0  0  0  0  0  0  0  0  0  0  0
    1.5483    0.3544   -1.8053 H   0  0  0  0  0  0  0  0  0  0  0  0
   -0.4303    1.5787   -1.1997 H   0  0  0  0  0  0  0  0  0  0  0  0
    0.7910    1.8443    0.0443 H   0  0  0  0  0  0  0  0  0  0  0  0
   -0.3533    0.1380    1.4988 H   0  0  0  0  0  0  0  0  0  0  0  0
   -1.3982    1.5214    1.0834 H   0  0  0  0  0  0  0  0  0  0  0  0
  1  2  1  0  0  0  0
  2  3  1  0  0  0  0
  3  4  1  0  0  0  0
  4  5  1  0  0  0  0
  5  6  1  0  0  0  0
  1  7  1  0  0  0  0
  1  8  1  0  0  0  0
  1  9  1  0  0  0  0
  2 10  1  0  0  0  0
  2 11  1  0  0  0  0
  3 12  1  0  0  0  0
  3 13  1  0  0  0  0
  4 14  1  0  0  0  0
  4 15  1  0  0  0  0
  5 16  1  0  0  0  0
  5 17  1  0  0  0  0
M  END
