 xtb: 6.7.1 (edcfbbe)
          04112515533D

 20 19  0     0  0            999 V2000
   -3.2569   -1.1773    0.3121 C   0  0  0  0  0  0  0  0  0  0  0  0
   -1.7561   -0.9206    0.2403 C   0  0  0  0  0  0  0  0  0  0  0  0
   -1.4667    0.5339   -0.1185 C   0  0  0  0  0  0  0  0  0  0  0  0
   -0.0040    0.8801   -0.2116 C   0  0  0  0  0  0  0  0  0  0  0  0
    0.4090    1.9922   -0.4842 O   0  0  0  0  0  0  0  0  0  0  0  0
    0.7973   -0.1434    0.0319 O   0  0  0  0  0  0  0  0  0  0  0  0
    2.2144    0.0893   -0.0333 C   0  0  0  0  0  0  0  0  0  0  0  0
    2.9231   -1.2194    0.2566 C   0  0  0  0  0  0  0  0  0  0  0  0
   -3.7270   -0.9666   -0.6453 H   0  0  0  0  0  0  0  0  0  0  0  0
   -3.4501   -2.2151    0.5690 H   0  0  0  0  0  0  0  0  0  0  0  0
   -3.7171   -0.5446    1.0670 H   0  0  0  0  0  0  0  0  0  0  0  0
   -1.3063   -1.5737   -0.5084 H   0  0  0  0  0  0  0  0  0  0  0  0
   -1.2961   -1.1540    1.2012 H   0  0  0  0  0  0  0  0  0  0  0  0
   -1.9070    1.2080    0.6205 H   0  0  0  0  0  0  0  0  0  0  0  0
   -1.9164    0.7900   -1.0811 H   0  0  0  0  0  0  0  0  0  0  0  0
    2.4565    0.4723   -1.0302 H   0  0  0  0  0  0  0  0  0  0  0  0
    2.4713    0.8625    0.6982 H   0  0  0  0  0  0  0  0  0  0  0  0
    3.9959   -1.0632    0.2136 H   0  0  0  0  0  0  0  0  0  0  0  0
    2.6521   -1.5786    1.2448 H   0  0  0  0  0  0  0  0  0  0  0  0
    2.6397   -1.9671   -0.4780 H   0  0  0  0  0  0  0  0  0  0  0  0
  1  2  1  0  0  0  0
  2  3  1  0  0  0  0
  3  4  1  0  0  0  0
  4  5  2  0  0  0  0
  4  6  1  0  0  0  0
  6  7  1  0  0  0  0
  7  8  1  0  0  0  0
  1  9  1  0  0  0  0
  1 10  1  0  0  0  0
  1 11  1  0  0  0  0
  2 12  1  0  0  0  0
  2 13  1  0  0  0  0
  3 14  1  0  0  0  0
  3 15  1  0  0  0  0
  7 16  1  0  0  0  0
  7 17  1  0  0  0  0
  8 18  1  0  0  0  0
  8 19  1  0  0  0  0
  8 20  1  0  0  0  0
M  END
