 xtb: 6.7.1 (edcfbbe)
          04112516563D

 31 32  0     0  0            999 V2000
   -3.4838    1.9554    0.1931 C   0  0  0  0  0  0  0  0  0  0  0  0
   -3.1629    0.5450   -0.3003 C   0  0  0  0  0  0  0  0  0  0  0  0
   -3.6796    0.3408   -1.2411 H   0  0  0  0  0  0  0  0  0  0  0  0
   -1.6739    0.3421   -0.5031 C   0  0  0  0  0  0  0  0  0  0  0  0
   -1.1794    0.0266   -1.7838 C   0  0  0  0  0  0  0  0  0  0  0  0
    0.1577   -0.1522   -1.9945 C   0  0  0  0  0  0  0  0  0  0  0  0
    1.0808   -0.0304   -0.9331 C   0  0  0  0  0  0  0  0  0  0  0  0
    2.4612   -0.2102   -1.1154 C   0  0  0  0  0  0  0  0  0  0  0  0
    3.3395   -0.0893   -0.0606 C   0  0  0  0  0  0  0  0  0  0  0  0
    2.8483    0.2203    1.2238 C   0  0  0  0  0  0  0  0  0  0  0  0
    1.5070    0.3981    1.4212 C   0  0  0  0  0  0  0  0  0  0  0  0
    0.5867    0.2802    0.3616 C   0  0  0  0  0  0  0  0  0  0  0  0
   -0.7987    0.4578    0.5457 C   0  0  0  0  0  0  0  0  0  0  0  0
    4.6596   -0.2852   -0.3489 O   0  0  0  0  0  0  0  0  0  0  0  0
    5.6135   -0.1755    0.6906 C   0  0  0  0  0  0  0  0  0  0  0  0
   -3.5937   -0.5036    0.7014 C   0  0  0  0  0  0  0  0  0  0  0  0
   -3.5714   -0.3709    1.9055 O   0  0  0  0  0  0  0  0  0  0  0  0
   -3.9653   -1.6296    0.1124 O   0  0  0  0  0  0  0  0  0  0  0  0
   -4.5597    2.1088    0.2193 H   0  0  0  0  0  0  0  0  0  0  0  0
   -3.0928    2.0986    1.1967 H   0  0  0  0  0  0  0  0  0  0  0  0
   -3.0355    2.6889   -0.4707 H   0  0  0  0  0  0  0  0  0  0  0  0
   -1.8745   -0.0714   -2.6042 H   0  0  0  0  0  0  0  0  0  0  0  0
    0.5296   -0.3914   -2.9795 H   0  0  0  0  0  0  0  0  0  0  0  0
    2.8511   -0.4476   -2.0931 H   0  0  0  0  0  0  0  0  0  0  0  0
    3.5252    0.3187    2.0569 H   0  0  0  0  0  0  0  0  0  0  0  0
    1.1348    0.6345    2.4071 H   0  0  0  0  0  0  0  0  0  0  0  0
   -1.1655    0.6764    1.5386 H   0  0  0  0  0  0  0  0  0  0  0  0
    5.6177    0.8295    1.1205 H   0  0  0  0  0  0  0  0  0  0  0  0
    6.5726   -0.3732    0.2172 H   0  0  0  0  0  0  0  0  0  0  0  0
    5.4329   -0.9156    1.4746 H   0  0  0  0  0  0  0  0  0  0  0  0
   -4.1984   -2.3334    0.7491 H   0  0  0  0  0  0  0  0  0  0  0  0
  1  2  1  0  0  0  0
  2  3  1  0  0  0  0
  2  4  1  0  0  0  0
  4  5  4  0  0  0  0
  5  6  2  0  0  0  0
  6  7  4  0  0  0  0
  7  8  4  0  0  0  0
  8  9  4  0  0  0  0
  9 10  4  0  0  0  0
 10 11  2  0  0  0  0
  7 12  4  0  0  0  0
 11 12  4  0  0  0  0
  4 13  2  0  0  0  0
 12 13  4  0  0  0  0
  9 14  1  0  0  0  0
 14 15  1  0  0  0  0
  2 16  1  0  0  0  0
 16 17  2  0  0  0  0
 16 18  1  0  0  0  0
  1 19  1  0  0  0  0
  1 20  1  0  0  0  0
  1 21  1  0  0  0  0
  5 22  1  0  0  0  0
  6 23  1  0  0  0  0
  8 24  1  0  0  0  0
 10 25  1  0  0  0  0
 11 26  1  0  0  0  0
 13 27  1  0  0  0  0
 15 28  1  0  0  0  0
 15 29  1  0  0  0  0
 15 30  1  0  0  0  0
 18 31  1  0  0  0  0
M  END
