 xtb: 6.7.1 (edcfbbe)
          04112512243D

 22 21  0     0  0            999 V2000
    2.1878    1.1136   -0.5478 C   0  0  0  0  0  0  0  0  0  0  0  0
    1.1985    0.2902    0.2728 C   0  0  0  0  0  0  0  0  0  0  0  0
    1.8496   -1.0219    0.7161 C   0  0  0  0  0  0  0  0  0  0  0  0
    0.0266   -0.0028   -0.5441 N   0  0  0  0  0  0  0  0  0  0  0  0
   -1.2055   -0.3164    0.1638 C   0  0  0  0  0  0  0  0  0  0  0  0
   -2.1498   -1.0255   -0.8069 C   0  0  0  0  0  0  0  0  0  0  0  0
   -1.8961    0.9135    0.7701 C   0  0  0  0  0  0  0  0  0  0  0  0
    1.7550    2.0735   -0.8229 H   0  0  0  0  0  0  0  0  0  0  0  0
    3.0926    1.2958    0.0255 H   0  0  0  0  0  0  0  0  0  0  0  0
    2.4488    0.5748   -1.4549 H   0  0  0  0  0  0  0  0  0  0  0  0
    0.9310    0.8683    1.1779 H   0  0  0  0  0  0  0  0  0  0  0  0
    2.1268   -1.6032   -0.1585 H   0  0  0  0  0  0  0  0  0  0  0  0
    1.1633   -1.6114    1.3177 H   0  0  0  0  0  0  0  0  0  0  0  0
    2.7384   -0.8180    1.3070 H   0  0  0  0  0  0  0  0  0  0  0  0
   -0.1492    0.7634   -1.1861 H   0  0  0  0  0  0  0  0  0  0  0  0
   -0.9486   -1.0100    0.9720 H   0  0  0  0  0  0  0  0  0  0  0  0
   -3.0513   -1.3462   -0.2923 H   0  0  0  0  0  0  0  0  0  0  0  0
   -2.4283   -0.3540   -1.6156 H   0  0  0  0  0  0  0  0  0  0  0  0
   -1.6560   -1.8932   -1.2336 H   0  0  0  0  0  0  0  0  0  0  0  0
   -1.2317    1.4327    1.4579 H   0  0  0  0  0  0  0  0  0  0  0  0
   -2.7864    0.6145    1.3166 H   0  0  0  0  0  0  0  0  0  0  0  0
   -2.1879    1.6054   -0.0183 H   0  0  0  0  0  0  0  0  0  0  0  0
  1  2  1  0  0  0  0
  2  3  1  0  0  0  0
  2  4  1  0  0  0  0
  4  5  1  0  0  0  0
  5  6  1  0  0  0  0
  5  7  1  0  0  0  0
  1  8  1  0  0  0  0
  1  9  1  0  0  0  0
  1 10  1  0  0  0  0
  2 11  1  0  0  0  0
  3 12  1  0  0  0  0
  3 13  1  0  0  0  0
  3 14  1  0  0  0  0
  4 15  1  0  0  0  0
  5 16  1  0  0  0  0
  6 17  1  0  0  0  0
  6 18  1  0  0  0  0
  6 19  1  0  0  0  0
  7 20  1  0  0  0  0
  7 21  1  0  0  0  0
  7 22  1  0  0  0  0
M  END
