 xtb: 6.7.1 (edcfbbe)
          04112516443D

 20 19  0     0  0            999 V2000
   -2.9718   -0.7017   -0.7580 C   0  0  0  0  0  0  0  0  0  0  0  0
   -2.5242    0.3691    0.2301 C   0  0  0  0  0  0  0  0  0  0  0  0
   -1.2054    0.0159    0.9218 C   0  0  0  0  0  0  0  0  0  0  0  0
    0.0045    0.2135    0.0445 C   0  0  0  0  0  0  0  0  0  0  0  0
    0.0219    0.1810   -1.1670 O   0  0  0  0  0  0  0  0  0  0  0  0
    1.0853    0.4448    0.7866 O   0  0  0  0  0  0  0  0  0  0  0  0
    2.3512    0.6156    0.1276 C   0  0  0  0  0  0  0  0  0  0  0  0
    3.0668   -0.7170   -0.0319 C   0  0  0  0  0  0  0  0  0  0  0  0
   -3.9082   -0.4120   -1.2277 H   0  0  0  0  0  0  0  0  0  0  0  0
   -2.2224   -0.8327   -1.5342 H   0  0  0  0  0  0  0  0  0  0  0  0
   -3.1198   -1.6523   -0.2509 H   0  0  0  0  0  0  0  0  0  0  0  0
   -3.2909    0.4973    0.9953 H   0  0  0  0  0  0  0  0  0  0  0  0
   -2.4082    1.3188   -0.2956 H   0  0  0  0  0  0  0  0  0  0  0  0
   -1.2155   -1.0352    1.2209 H   0  0  0  0  0  0  0  0  0  0  0  0
   -1.0571    0.6144    1.8208 H   0  0  0  0  0  0  0  0  0  0  0  0
    2.1772    1.0812   -0.8473 H   0  0  0  0  0  0  0  0  0  0  0  0
    2.9116    1.2913    0.7747 H   0  0  0  0  0  0  0  0  0  0  0  0
    3.1932   -1.1913    0.9375 H   0  0  0  0  0  0  0  0  0  0  0  0
    2.4890   -1.3756   -0.6764 H   0  0  0  0  0  0  0  0  0  0  0  0
    4.0409   -0.5510   -0.4803 H   0  0  0  0  0  0  0  0  0  0  0  0
  1  2  1  0  0  0  0
  2  3  1  0  0  0  0
  3  4  1  0  0  0  0
  4  5  2  0  0  0  0
  4  6  1  0  0  0  0
  6  7  1  0  0  0  0
  7  8  1  0  0  0  0
  1  9  1  0  0  0  0
  1 10  1  0  0  0  0
  1 11  1  0  0  0  0
  2 12  1  0  0  0  0
  2 13  1  0  0  0  0
  3 14  1  0  0  0  0
  3 15  1  0  0  0  0
  7 16  1  0  0  0  0
  7 17  1  0  0  0  0
  8 18  1  0  0  0  0
  8 19  1  0  0  0  0
  8 20  1  0  0  0  0
M  END
