 xtb: 6.7.1 (edcfbbe)
          04112517463D

 20 19  0     0  0            999 V2000
   -2.3244   -1.2364    0.7290 C   0  0  0  0  0  0  0  0  0  0  0  0
   -2.5244    0.0468   -0.0683 C   0  0  0  0  0  0  0  0  0  0  0  0
   -1.3254    0.3392   -0.9774 C   0  0  0  0  0  0  0  0  0  0  0  0
   -0.0988    0.6406   -0.1557 C   0  0  0  0  0  0  0  0  0  0  0  0
   -0.0178    1.5202    0.6778 O   0  0  0  0  0  0  0  0  0  0  0  0
    0.9016   -0.1796   -0.4426 O   0  0  0  0  0  0  0  0  0  0  0  0
    2.1379   -0.0101    0.2713 C   0  0  0  0  0  0  0  0  0  0  0  0
    3.0674   -1.1434   -0.1167 C   0  0  0  0  0  0  0  0  0  0  0  0
   -3.1971   -1.4404    1.3436 H   0  0  0  0  0  0  0  0  0  0  0  0
   -2.1646   -2.0800    0.0618 H   0  0  0  0  0  0  0  0  0  0  0  0
   -1.4592   -1.1464    1.3833 H   0  0  0  0  0  0  0  0  0  0  0  0
   -2.6571    0.8877    0.6151 H   0  0  0  0  0  0  0  0  0  0  0  0
   -3.4193   -0.0400   -0.6849 H   0  0  0  0  0  0  0  0  0  0  0  0
   -1.5389    1.2193   -1.5859 H   0  0  0  0  0  0  0  0  0  0  0  0
   -1.1104   -0.5094   -1.6254 H   0  0  0  0  0  0  0  0  0  0  0  0
    2.5563    0.9668    0.0080 H   0  0  0  0  0  0  0  0  0  0  0  0
    1.9205   -0.0084    1.3447 H   0  0  0  0  0  0  0  0  0  0  0  0
    3.2452   -1.1265   -1.1878 H   0  0  0  0  0  0  0  0  0  0  0  0
    4.0112   -1.0290    0.4060 H   0  0  0  0  0  0  0  0  0  0  0  0
    2.6227   -2.0977    0.1495 H   0  0  0  0  0  0  0  0  0  0  0  0
  1  2  1  0  0  0  0
  2  3  1  0  0  0  0
  3  4  1  0  0  0  0
  4  5  2  0  0  0  0
  4  6  1  0  0  0  0
  6  7  1  0  0  0  0
  7  8  1  0  0  0  0
  1  9  1  0  0  0  0
  1 10  1  0  0  0  0
  1 11  1  0  0  0  0
  2 12  1  0  0  0  0
  2 13  1  0  0  0  0
  3 14  1  0  0  0  0
  3 15  1  0  0  0  0
  7 16  1  0  0  0  0
  7 17  1  0  0  0  0
  8 18  1  0  0  0  0
  8 19  1  0  0  0  0
  8 20  1  0  0  0  0
M  END
