 xtb: 6.7.1 (edcfbbe)
          04112516003D

 17 16  0     0  0            999 V2000
    2.9021   -0.6522   -0.5443 C   0  0  0  0  0  0  0  0  0  0  0  0
    2.4226    0.2863    0.5577 C   0  0  0  0  0  0  0  0  0  0  0  0
    0.9054    0.2705    0.7462 C   0  0  0  0  0  0  0  0  0  0  0  0
    0.1481    0.8481   -0.4488 C   0  0  0  0  0  0  0  0  0  0  0  0
   -1.3448    0.9514   -0.1965 C   0  0  0  0  0  0  0  0  0  0  0  0
   -2.0899   -0.6790   -0.0191 Cl  0  0  0  0  0  0  0  0  0  0  0  0
    2.5537   -0.3231   -1.5193 H   0  0  0  0  0  0  0  0  0  0  0  0
    2.5356   -1.6614   -0.3692 H   0  0  0  0  0  0  0  0  0  0  0  0
    3.9889   -0.6816   -0.5664 H   0  0  0  0  0  0  0  0  0  0  0  0
    2.8888   -0.0110    1.4996 H   0  0  0  0  0  0  0  0  0  0  0  0
    2.7479    1.3045    0.3345 H   0  0  0  0  0  0  0  0  0  0  0  0
    0.6565    0.8550    1.6350 H   0  0  0  0  0  0  0  0  0  0  0  0
    0.5742   -0.7552    0.9208 H   0  0  0  0  0  0  0  0  0  0  0  0
    0.3196    0.2332   -1.3324 H   0  0  0  0  0  0  0  0  0  0  0  0
    0.5141    1.8559   -0.6564 H   0  0  0  0  0  0  0  0  0  0  0  0
   -1.5606    1.4811    0.7298 H   0  0  0  0  0  0  0  0  0  0  0  0
   -1.8606    1.4231   -1.0306 H   0  0  0  0  0  0  0  0  0  0  0  0
  1  2  1  0  0  0  0
  2  3  1  0  0  0  0
  3  4  1  0  0  0  0
  4  5  1  0  0  0  0
  5  6  1  0  0  0  0
  1  7  1  0  0  0  0
  1  8  1  0  0  0  0
  1  9  1  0  0  0  0
  2 10  1  0  0  0  0
  2 11  1  0  0  0  0
  3 12  1  0  0  0  0
  3 13  1  0  0  0  0
  4 14  1  0  0  0  0
  4 15  1  0  0  0  0
  5 16  1  0  0  0  0
  5 17  1  0  0  0  0
M  END
