 xtb: 6.7.1 (edcfbbe)
          04112512293D

 21 20  0     0  0            999 V2000
    2.2625    1.0950    0.7658 C   0  0  0  0  0  0  0  0  0  0  0  0
    1.3781    0.4047   -0.2600 C   0  0  0  0  0  0  0  0  0  0  0  0
    2.1609   -0.5609   -1.1346 C   0  0  0  0  0  0  0  0  0  0  0  0
    0.0277   -0.5078    0.6171 S   0  0  0  0  0  0  0  0  0  0  0  0
   -1.4799    0.3186   -0.0591 C   0  0  0  0  0  0  0  0  0  0  0  0
   -1.7469   -0.1394   -1.4829 C   0  0  0  0  0  0  0  0  0  0  0  0
   -2.6394   -0.0062    0.8687 C   0  0  0  0  0  0  0  0  0  0  0  0
    1.6740    1.7652    1.3880 H   0  0  0  0  0  0  0  0  0  0  0  0
    2.7353    0.3561    1.4088 H   0  0  0  0  0  0  0  0  0  0  0  0
    3.0366    1.6706    0.2629 H   0  0  0  0  0  0  0  0  0  0  0  0
    0.8712    1.1490   -0.8777 H   0  0  0  0  0  0  0  0  0  0  0  0
    1.5019   -1.0613   -1.8402 H   0  0  0  0  0  0  0  0  0  0  0  0
    2.6398   -1.3177   -0.5176 H   0  0  0  0  0  0  0  0  0  0  0  0
    2.9270   -0.0233   -1.6894 H   0  0  0  0  0  0  0  0  0  0  0  0
   -1.2674    1.3910   -0.0305 H   0  0  0  0  0  0  0  0  0  0  0  0
   -2.6348    0.3564   -1.8695 H   0  0  0  0  0  0  0  0  0  0  0  0
   -0.9090    0.0965   -2.1355 H   0  0  0  0  0  0  0  0  0  0  0  0
   -1.9085   -1.2149   -1.5020 H   0  0  0  0  0  0  0  0  0  0  0  0
   -3.5401    0.4975    0.5258 H   0  0  0  0  0  0  0  0  0  0  0  0
   -2.4173    0.3169    1.8827 H   0  0  0  0  0  0  0  0  0  0  0  0
   -2.8185   -1.0788    0.8815 H   0  0  0  0  0  0  0  0  0  0  0  0
  1  2  1  0  0  0  0
  2  3  1  0  0  0  0
  2  4  1  0  0  0  0
  4  5  1  0  0  0  0
  5  6  1  0  0  0  0
  5  7  1  0  0  0  0
  1  8  1  0  0  0  0
  1  9  1  0  0  0  0
  1 10  1  0  0  0  0
  2 11  1  0  0  0  0
  3 12  1  0  0  0  0
  3 13  1  0  0  0  0
  3 14  1  0  0  0  0
  5 15  1  0  0  0  0
  6 16  1  0  0  0  0
  6 17  1  0  0  0  0
  6 18  1  0  0  0  0
  7 19  1  0  0  0  0
  7 20  1  0  0  0  0
  7 21  1  0  0  0  0
M  END
