 xtb: 6.7.1 (edcfbbe)
          04112515543D

 17 16  0     0  0            999 V2000
    3.1229   -0.8715    0.3551 C   0  0  0  0  0  0  0  0  0  0  0  0
    2.6710    0.4032   -0.3488 C   0  0  0  0  0  0  0  0  0  0  0  0
    1.3325    0.9347    0.1660 C   0  0  0  0  0  0  0  0  0  0  0  0
    0.1586    0.0140   -0.1735 C   0  0  0  0  0  0  0  0  0  0  0  0
   -1.1518    0.6423    0.2646 C   0  0  0  0  0  0  0  0  0  0  0  0
   -2.5376   -0.4392   -0.1207 Cl  0  0  0  0  0  0  0  0  0  0  0  0
    2.4474   -1.6961    0.1446 H   0  0  0  0  0  0  0  0  0  0  0  0
    3.1582   -0.7190    1.4314 H   0  0  0  0  0  0  0  0  0  0  0  0
    4.1165   -1.1549    0.0167 H   0  0  0  0  0  0  0  0  0  0  0  0
    3.4283    1.1753   -0.1977 H   0  0  0  0  0  0  0  0  0  0  0  0
    2.5970    0.2182   -1.4223 H   0  0  0  0  0  0  0  0  0  0  0  0
    1.1500    1.9149   -0.2788 H   0  0  0  0  0  0  0  0  0  0  0  0
    1.3889    1.0651    1.2482 H   0  0  0  0  0  0  0  0  0  0  0  0
    0.2785   -0.9467    0.3276 H   0  0  0  0  0  0  0  0  0  0  0  0
    0.1337   -0.1657   -1.2497 H   0  0  0  0  0  0  0  0  0  0  0  0
   -1.1812    0.8006    1.3412 H   0  0  0  0  0  0  0  0  0  0  0  0
   -1.3446    1.5784   -0.2567 H   0  0  0  0  0  0  0  0  0  0  0  0
  1  2  1  0  0  0  0
  2  3  1  0  0  0  0
  3  4  1  0  0  0  0
  4  5  1  0  0  0  0
  5  6  1  0  0  0  0
  1  7  1  0  0  0  0
  1  8  1  0  0  0  0
  1  9  1  0  0  0  0
  2 10  1  0  0  0  0
  2 11  1  0  0  0  0
  3 12  1  0  0  0  0
  3 13  1  0  0  0  0
  4 14  1  0  0  0  0
  4 15  1  0  0  0  0
  5 16  1  0  0  0  0
  5 17  1  0  0  0  0
M  END
