20
 xtb: 6.7.1 (edcfbbe)
C           -2.22393493971531       -1.50845232542005       -0.00067481212048
C           -2.46942990118830       -0.00361494649123        0.06114506244602
C           -1.35747577438123        0.79225550228944       -0.62794819463808
C           -0.03326284956613        0.62135733407306        0.06505084148185
O            0.12145782824246        0.67215013746658        1.27478068108234
O            0.97590232634135        0.42648262578698       -0.80538452701339
C            2.31604696002059        0.24440624116729       -0.24434476326870
C            2.52965261515101       -1.19334303423494        0.17022878548855
H           -1.28698591097438       -1.77904708702404        0.50071700324171
H           -3.03268803736627       -2.06061205303872        0.48782169036536
H           -2.15909245999467       -1.85144051620081       -1.03908805903715
H           -2.55677423883309        0.32350863143193        1.10289485163639
H           -3.41690066079458        0.24137479945317       -0.43022637257792
H           -1.58439578165014        1.86582716883855       -0.59659863989054
H           -1.26250792816174        0.50560188383394       -1.67860657592002
H            2.98323508473902        0.52915180900428       -1.05996716956906
H            2.44846980506546        0.93913779003418        0.58855958133399
H            3.55600633643236       -1.31221003038986        0.53180458682120
H            1.84652781893674       -1.48223634841507        0.97347242783818
H            2.38502709839690       -1.86692529980209       -0.67945122410725
