 xtb: 6.7.1 (edcfbbe)
          04112515593D

 20 19  0     0  0            999 V2000
   -1.7759   -1.2070   -0.5657 C   0  0  0  0  0  0  0  0  0  0  0  0
   -2.3607   -0.0621    0.2523 C   0  0  0  0  0  0  0  0  0  0  0  0
   -1.3334    0.6306    1.1473 C   0  0  0  0  0  0  0  0  0  0  0  0
   -0.2611    1.3937    0.3624 C   0  0  0  0  0  0  0  0  0  0  0  0
    0.7788    0.5141   -0.2792 C   0  0  0  0  0  0  0  0  0  0  0  0
    1.1968    0.6557   -1.4120 O   0  0  0  0  0  0  0  0  0  0  0  0
    1.2400   -0.4167    0.5477 O   0  0  0  0  0  0  0  0  0  0  0  0
    2.2519   -1.2940    0.0526 C   0  0  0  0  0  0  0  0  0  0  0  0
   -1.2954   -1.9340    0.0856 H   0  0  0  0  0  0  0  0  0  0  0  0
   -2.5604   -1.7109   -1.1253 H   0  0  0  0  0  0  0  0  0  0  0  0
   -1.0399   -0.8407   -1.2789 H   0  0  0  0  0  0  0  0  0  0  0  0
   -2.8052    0.6727   -0.4223 H   0  0  0  0  0  0  0  0  0  0  0  0
   -3.1576   -0.4550    0.8869 H   0  0  0  0  0  0  0  0  0  0  0  0
   -0.8490   -0.1051    1.7901 H   0  0  0  0  0  0  0  0  0  0  0  0
   -1.8566    1.3460    1.7834 H   0  0  0  0  0  0  0  0  0  0  0  0
    0.2796    2.0499    1.0484 H   0  0  0  0  0  0  0  0  0  0  0  0
   -0.7102    2.0079   -0.4188 H   0  0  0  0  0  0  0  0  0  0  0  0
    2.5250   -1.9291    0.8894 H   0  0  0  0  0  0  0  0  0  0  0  0
    3.1083   -0.7174   -0.2996 H   0  0  0  0  0  0  0  0  0  0  0  0
    1.8596   -1.8857   -0.7758 H   0  0  0  0  0  0  0  0  0  0  0  0
  1  2  1  0  0  0  0
  2  3  1  0  0  0  0
  3  4  1  0  0  0  0
  4  5  1  0  0  0  0
  5  6  2  0  0  0  0
  5  7  1  0  0  0  0
  7  8  1  0  0  0  0
  1  9  1  0  0  0  0
  1 10  1  0  0  0  0
  1 11  1  0  0  0  0
  2 12  1  0  0  0  0
  2 13  1  0  0  0  0
  3 14  1  0  0  0  0
  3 15  1  0  0  0  0
  4 16  1  0  0  0  0
  4 17  1  0  0  0  0
  8 18  1  0  0  0  0
  8 19  1  0  0  0  0
  8 20  1  0  0  0  0
M  END
