 xtb: 6.7.1 (edcfbbe)
          04112516163D

 31 32  0     0  0            999 V2000
   -3.5394    0.1045   -1.8416 C   0  0  0  0  0  0  0  0  0  0  0  0
   -3.1763   -0.4279   -0.4551 C   0  0  0  0  0  0  0  0  0  0  0  0
   -3.6562   -1.3963   -0.2876 H   0  0  0  0  0  0  0  0  0  0  0  0
   -1.6786   -0.5929   -0.2814 C   0  0  0  0  0  0  0  0  0  0  0  0
   -1.1507   -1.8621    0.0275 C   0  0  0  0  0  0  0  0  0  0  0  0
    0.1933   -2.0454    0.1831 C   0  0  0  0  0  0  0  0  0  0  0  0
    1.0924   -0.9659    0.0435 C   0  0  0  0  0  0  0  0  0  0  0  0
    2.4793   -1.1191    0.1988 C   0  0  0  0  0  0  0  0  0  0  0  0
    3.3329   -0.0463    0.0610 C   0  0  0  0  0  0  0  0  0  0  0  0
    2.8092    1.2269   -0.2410 C   0  0  0  0  0  0  0  0  0  0  0  0
    1.4613    1.3956   -0.3961 C   0  0  0  0  0  0  0  0  0  0  0  0
    0.5656    0.3170   -0.2610 C   0  0  0  0  0  0  0  0  0  0  0  0
   -0.8261    0.4725   -0.4147 C   0  0  0  0  0  0  0  0  0  0  0  0
    4.6623   -0.3066    0.2329 O   0  0  0  0  0  0  0  0  0  0  0  0
    5.5915    0.7531    0.1050 C   0  0  0  0  0  0  0  0  0  0  0  0
   -3.6366    0.4872    0.6586 C   0  0  0  0  0  0  0  0  0  0  0  0
   -4.0465    0.0859    1.7292 O   0  0  0  0  0  0  0  0  0  0  0  0
   -3.5167    1.7722    0.3825 O   0  0  0  0  0  0  0  0  0  0  0  0
   -3.1110    1.0888   -2.0008 H   0  0  0  0  0  0  0  0  0  0  0  0
   -3.1551   -0.5734   -2.5987 H   0  0  0  0  0  0  0  0  0  0  0  0
   -4.6194    0.1728   -1.9449 H   0  0  0  0  0  0  0  0  0  0  0  0
   -1.8267   -2.6967    0.1409 H   0  0  0  0  0  0  0  0  0  0  0  0
    0.5885   -3.0225    0.4178 H   0  0  0  0  0  0  0  0  0  0  0  0
    2.8934   -2.0883    0.4305 H   0  0  0  0  0  0  0  0  0  0  0  0
    3.4668    2.0739   -0.3513 H   0  0  0  0  0  0  0  0  0  0  0  0
    1.0660    2.3735   -0.6277 H   0  0  0  0  0  0  0  0  0  0  0  0
   -1.2110    1.4568   -0.6368 H   0  0  0  0  0  0  0  0  0  0  0  0
    6.5643    0.3003    0.2836 H   0  0  0  0  0  0  0  0  0  0  0  0
    5.4088    1.5327    0.8491 H   0  0  0  0  0  0  0  0  0  0  0  0
    5.5670    1.1828   -0.8998 H   0  0  0  0  0  0  0  0  0  0  0  0
   -3.7888    2.3429    1.1271 H   0  0  0  0  0  0  0  0  0  0  0  0
  1  2  1  0  0  0  0
  2  3  1  0  0  0  0
  2  4  1  0  0  0  0
  4  5  4  0  0  0  0
  5  6  2  0  0  0  0
  6  7  4  0  0  0  0
  7  8  4  0  0  0  0
  8  9  4  0  0  0  0
  9 10  4  0  0  0  0
 10 11  2  0  0  0  0
  7 12  4  0  0  0  0
 11 12  4  0  0  0  0
  4 13  2  0  0  0  0
 12 13  4  0  0  0  0
  9 14  1  0  0  0  0
 14 15  1  0  0  0  0
  2 16  1  0  0  0  0
 16 17  2  0  0  0  0
 16 18  1  0  0  0  0
  1 19  1  0  0  0  0
  1 20  1  0  0  0  0
  1 21  1  0  0  0  0
  5 22  1  0  0  0  0
  6 23  1  0  0  0  0
  8 24  1  0  0  0  0
 10 25  1  0  0  0  0
 11 26  1  0  0  0  0
 13 27  1  0  0  0  0
 15 28  1  0  0  0  0
 15 29  1  0  0  0  0
 15 30  1  0  0  0  0
 18 31  1  0  0  0  0
M  END
