 xtb: 6.7.1 (edcfbbe)
          04112516443D

 20 19  0     0  0            999 V2000
   -3.3497   -1.0331    0.3206 C   0  0  0  0  0  0  0  0  0  0  0  0
   -1.8378   -0.9271    0.1586 C   0  0  0  0  0  0  0  0  0  0  0  0
   -1.4079    0.5271   -0.0137 C   0  0  0  0  0  0  0  0  0  0  0  0
    0.0757    0.7308   -0.1799 C   0  0  0  0  0  0  0  0  0  0  0  0
    0.6082    1.8237   -0.1529 O   0  0  0  0  0  0  0  0  0  0  0  0
    0.7366   -0.3991   -0.3816 O   0  0  0  0  0  0  0  0  0  0  0  0
    2.1616   -0.3374   -0.5578 C   0  0  0  0  0  0  0  0  0  0  0  0
    2.8819   -0.4100    0.7798 C   0  0  0  0  0  0  0  0  0  0  0  0
   -3.6810   -0.4737    1.1921 H   0  0  0  0  0  0  0  0  0  0  0  0
   -3.8566   -0.6356   -0.5553 H   0  0  0  0  0  0  0  0  0  0  0  0
   -3.6438   -2.0714    0.4464 H   0  0  0  0  0  0  0  0  0  0  0  0
   -1.5183   -1.5043   -0.7097 H   0  0  0  0  0  0  0  0  0  0  0  0
   -1.3438   -1.3481    1.0354 H   0  0  0  0  0  0  0  0  0  0  0  0
   -1.7234    1.1310    0.8399 H   0  0  0  0  0  0  0  0  0  0  0  0
   -1.8840    0.9598   -0.8978 H   0  0  0  0  0  0  0  0  0  0  0  0
    2.3990   -1.1985   -1.1834 H   0  0  0  0  0  0  0  0  0  0  0  0
    2.4097    0.5924   -1.0787 H   0  0  0  0  0  0  0  0  0  0  0  0
    3.9537   -0.4205    0.6109 H   0  0  0  0  0  0  0  0  0  0  0  0
    2.6287    0.4569    1.3861 H   0  0  0  0  0  0  0  0  0  0  0  0
    2.5932   -1.3121    1.3123 H   0  0  0  0  0  0  0  0  0  0  0  0
  1  2  1  0  0  0  0
  2  3  1  0  0  0  0
  3  4  1  0  0  0  0
  4  5  2  0  0  0  0
  4  6  1  0  0  0  0
  6  7  1  0  0  0  0
  7  8  1  0  0  0  0
  1  9  1  0  0  0  0
  1 10  1  0  0  0  0
  1 11  1  0  0  0  0
  2 12  1  0  0  0  0
  2 13  1  0  0  0  0
  3 14  1  0  0  0  0
  3 15  1  0  0  0  0
  7 16  1  0  0  0  0
  7 17  1  0  0  0  0
  8 18  1  0  0  0  0
  8 19  1  0  0  0  0
  8 20  1  0  0  0  0
M  END
