20
 xtb: 6.7.1 (edcfbbe)
C           -2.81631265387261        0.83649550722991        0.66934946530887
C           -2.51768437480177       -0.29521564512418       -0.30963980179960
C           -1.20008184227030       -1.00269531400512        0.00773146777064
C           -0.00496742934445       -0.10803799807461       -0.17643559050337
O            0.11003421106054        0.71901765419357       -1.06647544081845
O            0.94848319262252       -0.34330972615216        0.74662028005625
C            2.20623980249789        0.39297995080297        0.60699690090714
C            3.11539158387579       -0.28122513250628       -0.39456622992069
H           -3.76614494731156        1.32431093523672        0.43012088626617
H           -2.88011507965084        0.45796432388900        1.69528954398867
H           -2.03272393894027        1.60221709751515        0.64202729121540
H           -2.48627577526412        0.08912141005269       -1.33478124943304
H           -3.31981558761900       -1.03985944751051       -0.27387862596254
H           -1.04699220112285       -1.84909084662066       -0.67567752565171
H           -1.20144979759992       -1.40600611127005        1.02417499742207
H            1.98050405314741        1.42595557376338        0.33112171347569
H            2.63357778248395        0.37408427910118        1.61123407654029
H            2.67745733399510       -0.27862786534980       -1.39632075720110
H            4.06634269605462        0.25922620499265       -0.43426380433252
H            3.31991804224881       -1.31394963965429       -0.09799655888445
