 xtb: 6.7.1 (edcfbbe)
          04112516443D

 20 19  0     0  0            999 V2000
   -2.8272   -1.1109   -0.1064 C   0  0  0  0  0  0  0  0  0  0  0  0
   -2.5199    0.3813   -0.0657 C   0  0  0  0  0  0  0  0  0  0  0  0
   -1.2205    0.6698    0.6857 C   0  0  0  0  0  0  0  0  0  0  0  0
   -0.0080    0.1915   -0.0719 C   0  0  0  0  0  0  0  0  0  0  0  0
    0.0932    0.1504   -1.2796 O   0  0  0  0  0  0  0  0  0  0  0  0
    0.9621   -0.1763    0.7595 O   0  0  0  0  0  0  0  0  0  0  0  0
    2.2165   -0.6027    0.2019 C   0  0  0  0  0  0  0  0  0  0  0  0
    3.1214    0.5847   -0.0898 C   0  0  0  0  0  0  0  0  0  0  0  0
   -2.9141   -1.5122    0.9006 H   0  0  0  0  0  0  0  0  0  0  0  0
   -3.7605   -1.2912   -0.6328 H   0  0  0  0  0  0  0  0  0  0  0  0
   -2.0336   -1.6449   -0.6252 H   0  0  0  0  0  0  0  0  0  0  0  0
   -3.3375    0.9102    0.4245 H   0  0  0  0  0  0  0  0  0  0  0  0
   -2.4252    0.7602   -1.0849 H   0  0  0  0  0  0  0  0  0  0  0  0
   -1.2160    0.2059    1.6719 H   0  0  0  0  0  0  0  0  0  0  0  0
   -1.0994    1.7479    0.8154 H   0  0  0  0  0  0  0  0  0  0  0  0
    2.6474   -1.2532    0.9634 H   0  0  0  0  0  0  0  0  0  0  0  0
    2.0171   -1.1683   -0.7134 H   0  0  0  0  0  0  0  0  0  0  0  0
    4.0825    0.2261   -0.4434 H   0  0  0  0  0  0  0  0  0  0  0  0
    2.6751    1.2130   -0.8575 H   0  0  0  0  0  0  0  0  0  0  0  0
    3.2667    1.1746    0.8111 H   0  0  0  0  0  0  0  0  0  0  0  0
  1  2  1  0  0  0  0
  2  3  1  0  0  0  0
  3  4  1  0  0  0  0
  4  5  2  0  0  0  0
  4  6  1  0  0  0  0
  6  7  1  0  0  0  0
  7  8  1  0  0  0  0
  1  9  1  0  0  0  0
  1 10  1  0  0  0  0
  1 11  1  0  0  0  0
  2 12  1  0  0  0  0
  2 13  1  0  0  0  0
  3 14  1  0  0  0  0
  3 15  1  0  0  0  0
  7 16  1  0  0  0  0
  7 17  1  0  0  0  0
  8 18  1  0  0  0  0
  8 19  1  0  0  0  0
  8 20  1  0  0  0  0
M  END
