 xtb: 6.7.1 (edcfbbe)
          04112512303D

 14 13  0     0  0            999 V2000
   -2.9900   -0.8897   -0.2235 C   0  0  0  0  0  0  0  0  0  0  0  0
   -2.5504    0.2896    0.6373 C   0  0  0  0  0  0  0  0  0  0  0  0
   -1.7810    1.3499   -0.1689 C   0  0  0  0  0  0  0  0  0  0  0  0
   -0.3425    1.5276    0.2686 C   0  0  0  0  0  0  0  0  0  0  0  0
    0.8768   -0.2482   -0.0561 I   0  0  0  0  0  0  0  0  0  0  0  0
   -2.1308   -1.3782   -0.6772 H   0  0  0  0  0  0  0  0  0  0  0  0
   -3.5169   -1.6233    0.3816 H   0  0  0  0  0  0  0  0  0  0  0  0
   -3.6564   -0.5561   -1.0158 H   0  0  0  0  0  0  0  0  0  0  0  0
   -1.9224   -0.0811    1.4503 H   0  0  0  0  0  0  0  0  0  0  0  0
   -3.4325    0.7414    1.0932 H   0  0  0  0  0  0  0  0  0  0  0  0
   -1.8126    1.0983   -1.2307 H   0  0  0  0  0  0  0  0  0  0  0  0
   -2.2583    2.3263   -0.0528 H   0  0  0  0  0  0  0  0  0  0  0  0
   -0.2701    1.7351    1.3329 H   0  0  0  0  0  0  0  0  0  0  0  0
    0.1503    2.3160   -0.2942 H   0  0  0  0  0  0  0  0  0  0  0  0
  1  2  1  0  0  0  0
  2  3  1  0  0  0  0
  3  4  1  0  0  0  0
  4  5  1  0  0  0  0
  1  6  1  0  0  0  0
  1  7  1  0  0  0  0
  1  8  1  0  0  0  0
  2  9  1  0  0  0  0
  2 10  1  0  0  0  0
  3 11  1  0  0  0  0
  3 12  1  0  0  0  0
  4 13  1  0  0  0  0
  4 14  1  0  0  0  0
M  END
