20
 xtb: 6.7.1 (edcfbbe)
C           -2.59876877838234       -1.05196646391795       -0.44640398315063
C           -2.22961310369954       -0.25641114565070        0.80138495428742
C           -1.31468005092710        0.93771988029744        0.48579345629456
C           -0.04323038239179        0.51923530262552       -0.19822307169546
O            0.29678911100899        0.86759235405416       -1.31819065567969
O            0.68422323810101       -0.31198398186755        0.57245539060830
C            1.95341646547576       -0.79433245347666        0.02501691551544
C            3.05503303249315        0.21446482030195        0.25371452674784
H           -1.71183931297790       -1.49735655503483       -0.91304613784342
H           -3.28741480736819       -1.86642761865290       -0.20178567435448
H           -3.08322256092611       -0.41168315261098       -1.19206452315394
H           -1.74028369296343       -0.90736062350371        1.53334132958527
H           -3.13492798347537        0.13497471640180        1.27744923679930
H           -1.04752070227377        1.45770762506093        1.41288645930884
H           -1.82325303458356        1.64502514973279       -0.17391644951950
H            2.13969681232897       -1.72073130369968        0.57155039614013
H            1.81503161941996       -1.02267274215405       -1.03464164206707
H            3.16310013610547        0.43520527866184        1.31962368459459
H            4.00073783290038       -0.20210979791597       -0.10750022258942
H            2.86201863312055        1.14581547971943       -0.28528796615351
