33
 xtb: 6.7.1 (edcfbbe)
C           -4.53593047761155       -1.20786452329535       -0.25627845816797
C           -3.72191567382872       -2.34138198965193       -0.24072813813156
C           -2.34239485811816       -2.21163493356961       -0.15099692100687
C           -1.75698870884379       -0.94534709607152       -0.07459000832880
C           -2.57806737657842        0.19449538085448       -0.08939918580687
C           -3.96571696400916        0.05466807605764       -0.18174224177941
C           -1.98166968430245        1.54005588379392       -0.01070374346024
O           -2.69090840419879        2.55077346614429       -0.04451245138640
C           -0.50637833318554        1.64285525440252        0.11041848054305
C            0.04098534216214        2.91203165703630        0.21104989664131
C            1.42554470988763        3.06235946850353        0.33436438642772
C            2.25826373300896        1.96763069372624        0.35201762777292
C            1.73843271710824        0.65084941021294        0.24070418340769
C            0.31603558437973        0.48358925172181        0.12276922888759
C           -0.28039979982060       -0.83451378608008        0.02348115219814
O            0.40003392471850       -1.88484692723183        0.02269829268946
N            2.57280165592748       -0.40574039445208        0.25228933529414
C            4.02235206227520       -0.32433810096383        0.36506936058297
C            4.64115140428218       -1.70210398009735        0.22494586117758
O            4.52220661645828       -2.23769127122281       -1.10347254116759
H           -5.61342453689688       -1.31318200272788       -0.32613331286721
H           -4.16731053950130       -3.32913823728586       -0.29854288061853
H           -1.70828525331765       -3.09055479900658       -0.13879459083414
H           -4.58771076148900        0.94270809607818       -0.19276107770080
H           -0.60908368299378        3.77823332598797        0.19752597986976
H            1.85291031666017        4.05625841284108        0.42003120332882
H            3.32682808392862        2.11026800336532        0.45492842255380
H            2.12438840869208       -1.31526855970901        0.18451647549192
H            4.31388685558319        0.08925150983145        1.34120477828025
H            4.43241102915279        0.33425463144276       -0.41147924014356
H            4.20600819695605       -2.39484825636873        0.95802460764873
H            5.71190063650675       -1.61811623137604        0.42857339474549
H            3.61702708729184       -2.55089099621306       -1.22383525245190
