 xtb: 6.7.1 (edcfbbe)
          04112515533D

 20 19  0     0  0            999 V2000
   -3.6600   -0.7101    0.2478 C   0  0  0  0  0  0  0  0  0  0  0  0
   -2.4270    0.1830    0.2035 C   0  0  0  0  0  0  0  0  0  0  0  0
   -1.1662   -0.6206   -0.1108 C   0  0  0  0  0  0  0  0  0  0  0  0
    0.0439    0.2610   -0.2736 C   0  0  0  0  0  0  0  0  0  0  0  0
    0.0226    1.4269   -0.6104 O   0  0  0  0  0  0  0  0  0  0  0  0
    1.1632   -0.4010   -0.0102 O   0  0  0  0  0  0  0  0  0  0  0  0
    2.4159    0.2944   -0.1380 C   0  0  0  0  0  0  0  0  0  0  0  0
    3.4583   -0.4469    0.6774 C   0  0  0  0  0  0  0  0  0  0  0  0
   -3.8142   -1.1959   -0.7124 H   0  0  0  0  0  0  0  0  0  0  0  0
   -3.5464   -1.4777    1.0091 H   0  0  0  0  0  0  0  0  0  0  0  0
   -4.5427   -0.1211    0.4811 H   0  0  0  0  0  0  0  0  0  0  0  0
   -2.3006    0.6872    1.1634 H   0  0  0  0  0  0  0  0  0  0  0  0
   -2.5486    0.9564   -0.5571 H   0  0  0  0  0  0  0  0  0  0  0  0
   -1.2982   -1.1560   -1.0547 H   0  0  0  0  0  0  0  0  0  0  0  0
   -0.9560   -1.3584    0.6636 H   0  0  0  0  0  0  0  0  0  0  0  0
    2.6820    0.3204   -1.1995 H   0  0  0  0  0  0  0  0  0  0  0  0
    2.2781    1.3235    0.2094 H   0  0  0  0  0  0  0  0  0  0  0  0
    3.1724   -0.4626    1.7252 H   0  0  0  0  0  0  0  0  0  0  0  0
    3.5464   -1.4696    0.3231 H   0  0  0  0  0  0  0  0  0  0  0  0
    4.4158    0.0529    0.5752 H   0  0  0  0  0  0  0  0  0  0  0  0
  1  2  1  0  0  0  0
  2  3  1  0  0  0  0
  3  4  1  0  0  0  0
  4  5  2  0  0  0  0
  4  6  1  0  0  0  0
  6  7  1  0  0  0  0
  7  8  1  0  0  0  0
  1  9  1  0  0  0  0
  1 10  1  0  0  0  0
  1 11  1  0  0  0  0
  2 12  1  0  0  0  0
  2 13  1  0  0  0  0
  3 14  1  0  0  0  0
  3 15  1  0  0  0  0
  7 16  1  0  0  0  0
  7 17  1  0  0  0  0
  8 18  1  0  0  0  0
  8 19  1  0  0  0  0
  8 20  1  0  0  0  0
M  END
