 xtb: 6.7.1 (edcfbbe)
          04112512433D

 16 15  0     0  0            999 V2000
    2.1252   -0.3216   -0.6034 C   0  0  0  0  0  0  0  0  0  0  0  0
    1.3869    0.4879    0.4570 C   0  0  0  0  0  0  0  0  0  0  0  0
   -0.0215   -0.0340    0.7409 C   0  0  0  0  0  0  0  0  0  0  0  0
   -0.9892    0.1553   -0.4359 C   0  0  0  0  0  0  0  0  0  0  0  0
   -2.3657   -0.2267   -0.1541 N   0  0  0  0  0  0  0  0  0  0  0  0
    1.6325   -0.2408   -1.5684 H   0  0  0  0  0  0  0  0  0  0  0  0
    3.1441    0.0424   -0.7107 H   0  0  0  0  0  0  0  0  0  0  0  0
    2.1639   -1.3715   -0.3215 H   0  0  0  0  0  0  0  0  0  0  0  0
    1.9608    0.4583    1.3862 H   0  0  0  0  0  0  0  0  0  0  0  0
    1.3246    1.5312    0.1396 H   0  0  0  0  0  0  0  0  0  0  0  0
    0.0301   -1.0960    0.9970 H   0  0  0  0  0  0  0  0  0  0  0  0
   -0.4248    0.4978    1.6082 H   0  0  0  0  0  0  0  0  0  0  0  0
   -0.6593   -0.4386   -1.2910 H   0  0  0  0  0  0  0  0  0  0  0  0
   -0.9949    1.2073   -0.7354 H   0  0  0  0  0  0  0  0  0  0  0  0
   -2.7136    0.3137    0.6314 H   0  0  0  0  0  0  0  0  0  0  0  0
   -2.3961   -1.2038    0.1184 H   0  0  0  0  0  0  0  0  0  0  0  0
  1  2  1  0  0  0  0
  2  3  1  0  0  0  0
  3  4  1  0  0  0  0
  4  5  1  0  0  0  0
  1  6  1  0  0  0  0
  1  7  1  0  0  0  0
  1  8  1  0  0  0  0
  2  9  1  0  0  0  0
  2 10  1  0  0  0  0
  3 11  1  0  0  0  0
  3 12  1  0  0  0  0
  4 13  1  0  0  0  0
  4 14  1  0  0  0  0
  5 15  1  0  0  0  0
  5 16  1  0  0  0  0
M  END
