 xtb: 6.7.1 (edcfbbe)
          04112512273D

 13 13  0     0  0            999 V2000
   -1.9634    0.9609   -0.3907 C   0  0  0  0  0  0  0  0  0  0  0  0
   -1.5547   -0.2665    0.4165 C   0  0  0  0  0  0  0  0  0  0  0  0
   -0.3176   -0.9404   -0.1634 C   0  0  0  0  0  0  0  0  0  0  0  0
    0.8933   -0.1400    0.0085 N   0  0  0  0  0  0  0  0  0  0  0  0
    0.9585    0.6457    0.9286 O   0  0  0  0  0  0  0  0  0  0  0  0
    1.7982   -0.3267   -0.7833 O   0  0  0  0  0  0  0  0  0  0  0  0
   -2.1471    0.6966   -1.4293 H   0  0  0  0  0  0  0  0  0  0  0  0
   -2.8713    1.3931    0.0194 H   0  0  0  0  0  0  0  0  0  0  0  0
   -1.1853    1.7208   -0.3571 H   0  0  0  0  0  0  0  0  0  0  0  0
   -2.3667   -0.9926    0.4153 H   0  0  0  0  0  0  0  0  0  0  0  0
   -1.3552    0.0245    1.4485 H   0  0  0  0  0  0  0  0  0  0  0  0
   -0.1256   -1.8880    0.3493 H   0  0  0  0  0  0  0  0  0  0  0  0
   -0.4157   -1.1430   -1.2316 H   0  0  0  0  0  0  0  0  0  0  0  0
  1  2  1  0  0  0  0
  2  3  1  0  0  0  0
  3  4  1  0  0  0  0
  4  5  4  0  0  0  0
  4  6  4  0  0  0  0
  5  6  1  0  0  0  0
  1  7  1  0  0  0  0
  1  8  1  0  0  0  0
  1  9  1  0  0  0  0
  2 10  1  0  0  0  0
  2 11  1  0  0  0  0
  3 12  1  0  0  0  0
  3 13  1  0  0  0  0
M  END
