 xtb: 6.7.1 (edcfbbe)
          04112515593D

 20 19  0     0  0            999 V2000
   -3.5689   -1.0516    0.4303 C   0  0  0  0  0  0  0  0  0  0  0  0
   -2.6713    0.1172    0.0416 C   0  0  0  0  0  0  0  0  0  0  0  0
   -1.1931   -0.2604    0.1185 C   0  0  0  0  0  0  0  0  0  0  0  0
   -0.2992    0.9132   -0.2699 C   0  0  0  0  0  0  0  0  0  0  0  0
    1.1784    0.6237   -0.2198 C   0  0  0  0  0  0  0  0  0  0  0  0
    2.0317    1.4529   -0.4723 O   0  0  0  0  0  0  0  0  0  0  0  0
    1.4491   -0.6249    0.1276 O   0  0  0  0  0  0  0  0  0  0  0  0
    2.8140   -1.0450    0.2146 C   0  0  0  0  0  0  0  0  0  0  0  0
   -4.6157   -0.7652    0.3704 H   0  0  0  0  0  0  0  0  0  0  0  0
   -3.4044   -1.8957   -0.2351 H   0  0  0  0  0  0  0  0  0  0  0  0
   -3.3574   -1.3720    1.4477 H   0  0  0  0  0  0  0  0  0  0  0  0
   -2.9109    0.4359   -0.9749 H   0  0  0  0  0  0  0  0  0  0  0  0
   -2.8647    0.9602    0.7081 H   0  0  0  0  0  0  0  0  0  0  0  0
   -0.9970   -1.1023   -0.5472 H   0  0  0  0  0  0  0  0  0  0  0  0
   -0.9514   -0.5806    1.1332 H   0  0  0  0  0  0  0  0  0  0  0  0
   -0.4783    1.7691    0.3853 H   0  0  0  0  0  0  0  0  0  0  0  0
   -0.5222    1.2466   -1.2866 H   0  0  0  0  0  0  0  0  0  0  0  0
    2.9819   -1.8017   -0.5498 H   0  0  0  0  0  0  0  0  0  0  0  0
    2.9608   -1.4690    1.2057 H   0  0  0  0  0  0  0  0  0  0  0  0
    3.4758   -0.1926    0.0571 H   0  0  0  0  0  0  0  0  0  0  0  0
  1  2  1  0  0  0  0
  2  3  1  0  0  0  0
  3  4  1  0  0  0  0
  4  5  1  0  0  0  0
  5  6  2  0  0  0  0
  5  7  1  0  0  0  0
  7  8  1  0  0  0  0
  1  9  1  0  0  0  0
  1 10  1  0  0  0  0
  1 11  1  0  0  0  0
  2 12  1  0  0  0  0
  2 13  1  0  0  0  0
  3 14  1  0  0  0  0
  3 15  1  0  0  0  0
  4 16  1  0  0  0  0
  4 17  1  0  0  0  0
  8 18  1  0  0  0  0
  8 19  1  0  0  0  0
  8 20  1  0  0  0  0
M  END
