31
 xtb: 6.7.1 (edcfbbe)
C           -3.80123986812527        1.03643731467437       -1.57335872048173
C           -3.30885020216372       -0.20622866048510       -0.83543570747531
H           -3.56291923834385       -1.10305590721853       -1.41337610738793
C           -1.80343300859001       -0.20129526779748       -0.63152456834393
C           -0.99550647789853       -1.17465019785759       -1.21966214220714
C            0.38228515124828       -1.15108974471660       -1.04013499456852
C            1.00815316897795       -0.16897579186120       -0.26124385079101
C            0.16369268489868        0.78436343071335        0.31176332135360
C           -1.20714884793438        0.79345151799593        0.14650219311238
F            0.71049884656256        1.78821427605003        1.04715306580954
C            2.47416410874347       -0.14852012045285       -0.08419118452057
C            3.05570682883583        0.06561393501410        1.17287970110865
C            4.43848705184592        0.05157454063274        1.32158995332071
C            5.26277857622631       -0.17046701333626        0.22041243204333
C            4.69404631342635       -0.38497127060884       -1.03273928504016
C            3.31151144265111       -0.37550261719168       -1.18474490462954
C           -3.98690912293925       -0.35006230660337        0.51733403874862
O           -4.62841343127097        0.51965943893497        1.07106507541001
O           -3.83134919098952       -1.54212224991674        1.14132223821942
H           -4.88369136861141        0.99159540158713       -1.71910537723482
H           -3.56417796855285        1.94506923387217       -1.01505196725888
H           -3.31882652116301        1.09348452000692       -2.55211043402450
H           -1.44722454267823       -1.95655426878147       -1.82189738410322
H            0.99589370537583       -1.92063894464137       -1.49784708766842
H           -1.79501921028371        1.57602475186949        0.61656288952540
H            2.42320373259777        0.22087031437650        2.04021483336744
H            4.87326041444732        0.21005958429259        2.30354641256645
H            6.34162514476719       -0.17723942677166        0.33881288981650
H            5.32823031280495       -0.55429963715410       -1.89727756719008
H            2.87458730795306       -0.52881476136928       -2.16669691329995
H           -3.30802261495922       -2.14979443514807        0.59372700958669
