 xtb: 6.7.1 (edcfbbe)
          04112512313D

 22 21  0     0  0            999 V2000
    1.4158    0.2971   -1.2902 C   0  0  0  0  0  0  0  0  0  0  0  0
    1.1018    0.2796    0.2139 C   0  0  0  0  0  0  0  0  0  0  0  0
    2.3402   -0.1780    0.9886 C   0  0  0  0  0  0  0  0  0  0  0  0
    0.0033   -0.5822    0.6176 N   0  0  0  0  0  0  0  0  0  0  0  0
   -1.3780   -0.2850    0.2581 C   0  0  0  0  0  0  0  0  0  0  0  0
   -1.7854   -0.6976   -1.1662 C   0  0  0  0  0  0  0  0  0  0  0  0
   -1.7302    1.1784    0.5105 C   0  0  0  0  0  0  0  0  0  0  0  0
    0.6340    0.7992   -1.8535 H   0  0  0  0  0  0  0  0  0  0  0  0
    2.3492    0.8265   -1.4652 H   0  0  0  0  0  0  0  0  0  0  0  0
    1.5192   -0.7192   -1.6663 H   0  0  0  0  0  0  0  0  0  0  0  0
    0.8539    1.2960    0.5351 H   0  0  0  0  0  0  0  0  0  0  0  0
    3.1643    0.5115    0.8281 H   0  0  0  0  0  0  0  0  0  0  0  0
    2.6455   -1.1686    0.6585 H   0  0  0  0  0  0  0  0  0  0  0  0
    2.1169   -0.2213    2.0504 H   0  0  0  0  0  0  0  0  0  0  0  0
    0.2147   -1.5407    0.3609 H   0  0  0  0  0  0  0  0  0  0  0  0
   -1.9741   -0.8976    0.9516 H   0  0  0  0  0  0  0  0  0  0  0  0
   -1.4687   -1.7187   -1.3704 H   0  0  0  0  0  0  0  0  0  0  0  0
   -2.8670   -0.6487   -1.2655 H   0  0  0  0  0  0  0  0  0  0  0  0
   -1.3456   -0.0425   -1.9128 H   0  0  0  0  0  0  0  0  0  0  0  0
   -2.8067    1.3088    0.4388 H   0  0  0  0  0  0  0  0  0  0  0  0
   -1.2583    1.8266   -0.2240 H   0  0  0  0  0  0  0  0  0  0  0  0
   -1.4082    1.4749    1.5049 H   0  0  0  0  0  0  0  0  0  0  0  0
  1  2  1  0  0  0  0
  2  3  1  0  0  0  0
  2  4  1  0  0  0  0
  4  5  1  0  0  0  0
  5  6  1  0  0  0  0
  5  7  1  0  0  0  0
  1  8  1  0  0  0  0
  1  9  1  0  0  0  0
  1 10  1  0  0  0  0
  2 11  1  0  0  0  0
  3 12  1  0  0  0  0
  3 13  1  0  0  0  0
  3 14  1  0  0  0  0
  4 15  1  0  0  0  0
  5 16  1  0  0  0  0
  6 17  1  0  0  0  0
  6 18  1  0  0  0  0
  6 19  1  0  0  0  0
  7 20  1  0  0  0  0
  7 21  1  0  0  0  0
  7 22  1  0  0  0  0
M  END
