 xtb: 6.7.1 (edcfbbe)
          04112515533D

 20 19  0     0  0            999 V2000
   -2.0790   -1.4335    0.5352 C   0  0  0  0  0  0  0  0  0  0  0  0
   -2.0966   -0.4311   -0.6124 C   0  0  0  0  0  0  0  0  0  0  0  0
   -1.5005    0.9168   -0.1949 C   0  0  0  0  0  0  0  0  0  0  0  0
   -0.0399    0.8076    0.1630 C   0  0  0  0  0  0  0  0  0  0  0  0
    0.4499    1.2354    1.1885 O   0  0  0  0  0  0  0  0  0  0  0  0
    0.6624    0.2113   -0.7915 O   0  0  0  0  0  0  0  0  0  0  0  0
    2.0718    0.0252   -0.5881 C   0  0  0  0  0  0  0  0  0  0  0  0
    2.3518   -1.2296    0.2252 C   0  0  0  0  0  0  0  0  0  0  0  0
   -2.5082   -2.3806    0.2193 H   0  0  0  0  0  0  0  0  0  0  0  0
   -1.0597   -1.6125    0.8720 H   0  0  0  0  0  0  0  0  0  0  0  0
   -2.6525   -1.0580    1.3796 H   0  0  0  0  0  0  0  0  0  0  0  0
   -3.1247   -0.2696   -0.9383 H   0  0  0  0  0  0  0  0  0  0  0  0
   -1.5275   -0.8246   -1.4553 H   0  0  0  0  0  0  0  0  0  0  0  0
   -2.0265    1.3248    0.6687 H   0  0  0  0  0  0  0  0  0  0  0  0
   -1.5795    1.6226   -1.0236 H   0  0  0  0  0  0  0  0  0  0  0  0
    2.4843   -0.0538   -1.5942 H   0  0  0  0  0  0  0  0  0  0  0  0
    2.4716    0.9083   -0.0803 H   0  0  0  0  0  0  0  0  0  0  0  0
    1.9028   -2.0957   -0.2539 H   0  0  0  0  0  0  0  0  0  0  0  0
    3.4241   -1.3775    0.3008 H   0  0  0  0  0  0  0  0  0  0  0  0
    1.9401   -1.1234    1.2268 H   0  0  0  0  0  0  0  0  0  0  0  0
  1  2  1  0  0  0  0
  2  3  1  0  0  0  0
  3  4  1  0  0  0  0
  4  5  2  0  0  0  0
  4  6  1  0  0  0  0
  6  7  1  0  0  0  0
  7  8  1  0  0  0  0
  1  9  1  0  0  0  0
  1 10  1  0  0  0  0
  1 11  1  0  0  0  0
  2 12  1  0  0  0  0
  2 13  1  0  0  0  0
  3 14  1  0  0  0  0
  3 15  1  0  0  0  0
  7 16  1  0  0  0  0
  7 17  1  0  0  0  0
  8 18  1  0  0  0  0
  8 19  1  0  0  0  0
  8 20  1  0  0  0  0
M  END
