17
 xtb: 6.7.1 (edcfbbe)
C            2.14116478103834       -0.88070428004685        0.60122757626049
C            1.73498026089367       -0.12693284497317       -0.66266500563669
C            1.18114923409392        1.27515101462758       -0.39110506223092
C           -0.08119639405334        1.36242231752624        0.47226117855865
C           -1.35292533977617        0.81634065614234       -0.14419520409178
Cl          -1.52084729173508       -1.02282530942120        0.00862797329481
H            2.87595960876727       -0.30782769182296        1.17929222268107
H            2.59083512010485       -1.84844050335215        0.35508993577219
H            1.28144232660469       -1.07350976419525        1.25018487020909
H            2.61194302997565       -0.02159659285696       -1.31380345132968
H            1.00311758031565       -0.71652341321210       -1.22636462084412
H            0.97618058841009        1.77204909992612       -1.34839997323225
H            1.96329537426856        1.86638565222521        0.10356934707015
H           -0.29091555314294        2.42658842229158        0.64894774847813
H            0.07600025924187        0.91986796231535        1.46211822400880
H           -2.23998366635597        1.20576473135780        0.35672516385552
H           -1.41618524660499        1.02579537541968       -1.21472888266203
