 xtb: 6.7.1 (edcfbbe)
          04112512293D

 16 15  0     0  0            999 V2000
    2.0344   -0.6280   -0.1509 C   0  0  0  0  0  0  0  0  0  0  0  0
    1.1159    0.3364    0.5923 C   0  0  0  0  0  0  0  0  0  0  0  0
    0.0014    0.9066   -0.2883 C   0  0  0  0  0  0  0  0  0  0  0  0
   -1.0897   -0.0999   -0.6589 C   0  0  0  0  0  0  0  0  0  0  0  0
   -1.9628   -0.3649    0.4792 N   0  0  0  0  0  0  0  0  0  0  0  0
    2.8348   -0.9656    0.5030 H   0  0  0  0  0  0  0  0  0  0  0  0
    1.4907   -1.5030   -0.4985 H   0  0  0  0  0  0  0  0  0  0  0  0
    2.4790   -0.1374   -1.0139 H   0  0  0  0  0  0  0  0  0  0  0  0
    0.6817   -0.1656    1.4591 H   0  0  0  0  0  0  0  0  0  0  0  0
    1.7140    1.1694    0.9678 H   0  0  0  0  0  0  0  0  0  0  0  0
   -0.4796    1.7343    0.2348 H   0  0  0  0  0  0  0  0  0  0  0  0
    0.4429    1.2954   -1.2078 H   0  0  0  0  0  0  0  0  0  0  0  0
   -0.6287   -1.0133   -1.0693 H   0  0  0  0  0  0  0  0  0  0  0  0
   -1.7147    0.3339   -1.4451 H   0  0  0  0  0  0  0  0  0  0  0  0
   -1.4285   -0.7942    1.2273 H   0  0  0  0  0  0  0  0  0  0  0  0
   -2.6859   -1.0221    0.2099 H   0  0  0  0  0  0  0  0  0  0  0  0
  1  2  1  0  0  0  0
  2  3  1  0  0  0  0
  3  4  1  0  0  0  0
  4  5  1  0  0  0  0
  1  6  1  0  0  0  0
  1  7  1  0  0  0  0
  1  8  1  0  0  0  0
  2  9  1  0  0  0  0
  2 10  1  0  0  0  0
  3 11  1  0  0  0  0
  3 12  1  0  0  0  0
  4 13  1  0  0  0  0
  4 14  1  0  0  0  0
  5 15  1  0  0  0  0
  5 16  1  0  0  0  0
M  END
