 xtb: 6.7.1 (edcfbbe)
          04112515593D

 20 19  0     0  0            999 V2000
   -3.7862   -0.6264   -0.2459 C   0  0  0  0  0  0  0  0  0  0  0  0
   -2.6761    0.1048    0.4997 C   0  0  0  0  0  0  0  0  0  0  0  0
   -1.3116   -0.1556   -0.1337 C   0  0  0  0  0  0  0  0  0  0  0  0
   -0.1926    0.5838    0.6113 C   0  0  0  0  0  0  0  0  0  0  0  0
    1.1165    0.3787   -0.1014 C   0  0  0  0  0  0  0  0  0  0  0  0
    1.3823    0.8041   -1.2064 O   0  0  0  0  0  0  0  0  0  0  0  0
    1.9605   -0.3554    0.6147 O   0  0  0  0  0  0  0  0  0  0  0  0
    3.2378   -0.6466    0.0403 C   0  0  0  0  0  0  0  0  0  0  0  0
   -4.7494   -0.4283    0.2168 H   0  0  0  0  0  0  0  0  0  0  0  0
   -3.8279   -0.2989   -1.2821 H   0  0  0  0  0  0  0  0  0  0  0  0
   -3.6119   -1.6998   -0.2334 H   0  0  0  0  0  0  0  0  0  0  0  0
   -2.8785    1.1774    0.4907 H   0  0  0  0  0  0  0  0  0  0  0  0
   -2.6587   -0.2238    1.5403 H   0  0  0  0  0  0  0  0  0  0  0  0
   -1.3174    0.1746   -1.1747 H   0  0  0  0  0  0  0  0  0  0  0  0
   -1.1038   -1.2277   -0.1236 H   0  0  0  0  0  0  0  0  0  0  0  0
   -0.1016    0.2174    1.6327 H   0  0  0  0  0  0  0  0  0  0  0  0
   -0.4140    1.6519    0.6187 H   0  0  0  0  0  0  0  0  0  0  0  0
    3.7817    0.2802   -0.1454 H   0  0  0  0  0  0  0  0  0  0  0  0
    3.1095   -1.1774   -0.9037 H   0  0  0  0  0  0  0  0  0  0  0  0
    3.7535   -1.2630    0.7696 H   0  0  0  0  0  0  0  0  0  0  0  0
  1  2  1  0  0  0  0
  2  3  1  0  0  0  0
  3  4  1  0  0  0  0
  4  5  1  0  0  0  0
  5  6  2  0  0  0  0
  5  7  1  0  0  0  0
  7  8  1  0  0  0  0
  1  9  1  0  0  0  0
  1 10  1  0  0  0  0
  1 11  1  0  0  0  0
  2 12  1  0  0  0  0
  2 13  1  0  0  0  0
  3 14  1  0  0  0  0
  3 15  1  0  0  0  0
  4 16  1  0  0  0  0
  4 17  1  0  0  0  0
  8 18  1  0  0  0  0
  8 19  1  0  0  0  0
  8 20  1  0  0  0  0
M  END
