 xtb: 6.7.1 (edcfbbe)
          04112515593D

 20 19  0     0  0            999 V2000
   -3.2903   -0.8700    0.3030 C   0  0  0  0  0  0  0  0  0  0  0  0
   -1.8870   -0.6147   -0.2335 C   0  0  0  0  0  0  0  0  0  0  0  0
   -1.5028    0.8595   -0.1241 C   0  0  0  0  0  0  0  0  0  0  0  0
   -0.1156    1.1340   -0.7132 C   0  0  0  0  0  0  0  0  0  0  0  0
    0.9543    0.4525    0.0997 C   0  0  0  0  0  0  0  0  0  0  0  0
    1.1101    0.5884    1.2955 O   0  0  0  0  0  0  0  0  0  0  0  0
    1.7137   -0.3303   -0.6578 O   0  0  0  0  0  0  0  0  0  0  0  0
    2.7909   -1.0525   -0.0526 C   0  0  0  0  0  0  0  0  0  0  0  0
   -3.3547   -0.5815    1.3496 H   0  0  0  0  0  0  0  0  0  0  0  0
   -4.0215   -0.2929   -0.2579 H   0  0  0  0  0  0  0  0  0  0  0  0
   -3.5448   -1.9234    0.2201 H   0  0  0  0  0  0  0  0  0  0  0  0
   -1.1675   -1.2156    0.3287 H   0  0  0  0  0  0  0  0  0  0  0  0
   -1.8344   -0.9256   -1.2791 H   0  0  0  0  0  0  0  0  0  0  0  0
   -1.5025    1.1584    0.9262 H   0  0  0  0  0  0  0  0  0  0  0  0
   -2.2381    1.4667   -0.6533 H   0  0  0  0  0  0  0  0  0  0  0  0
    0.0834    2.2065   -0.6828 H   0  0  0  0  0  0  0  0  0  0  0  0
   -0.0491    0.7822   -1.7420 H   0  0  0  0  0  0  0  0  0  0  0  0
    3.7284   -0.5729   -0.3311 H   0  0  0  0  0  0  0  0  0  0  0  0
    2.7520   -2.0659   -0.4446 H   0  0  0  0  0  0  0  0  0  0  0  0
    2.6766   -1.0484    1.0321 H   0  0  0  0  0  0  0  0  0  0  0  0
  1  2  1  0  0  0  0
  2  3  1  0  0  0  0
  3  4  1  0  0  0  0
  4  5  1  0  0  0  0
  5  6  2  0  0  0  0
  5  7  1  0  0  0  0
  7  8  1  0  0  0  0
  1  9  1  0  0  0  0
  1 10  1  0  0  0  0
  1 11  1  0  0  0  0
  2 12  1  0  0  0  0
  2 13  1  0  0  0  0
  3 14  1  0  0  0  0
  3 15  1  0  0  0  0
  4 16  1  0  0  0  0
  4 17  1  0  0  0  0
  8 18  1  0  0  0  0
  8 19  1  0  0  0  0
  8 20  1  0  0  0  0
M  END
