 xtb: 6.7.1 (edcfbbe)
          04112515533D

 20 19  0     0  0            999 V2000
   -3.4990   -0.9162    0.1806 C   0  0  0  0  0  0  0  0  0  0  0  0
   -2.1643   -0.2805    0.5469 C   0  0  0  0  0  0  0  0  0  0  0  0
   -1.2404   -0.1823   -0.6738 C   0  0  0  0  0  0  0  0  0  0  0  0
    0.0313    0.5345   -0.3042 C   0  0  0  0  0  0  0  0  0  0  0  0
    0.0873    1.6847    0.0822 O   0  0  0  0  0  0  0  0  0  0  0  0
    1.0894   -0.2518   -0.4316 O   0  0  0  0  0  0  0  0  0  0  0  0
    2.3905    0.2548   -0.0838 C   0  0  0  0  0  0  0  0  0  0  0  0
    3.1667   -0.8353    0.6337 C   0  0  0  0  0  0  0  0  0  0  0  0
   -4.0117   -0.3208   -0.5705 H   0  0  0  0  0  0  0  0  0  0  0  0
   -3.3473   -1.9169   -0.2157 H   0  0  0  0  0  0  0  0  0  0  0  0
   -4.1346   -0.9848    1.0591 H   0  0  0  0  0  0  0  0  0  0  0  0
   -1.6741   -0.8745    1.3208 H   0  0  0  0  0  0  0  0  0  0  0  0
   -2.3235    0.7234    0.9455 H   0  0  0  0  0  0  0  0  0  0  0  0
   -1.7403    0.3949   -1.4532 H   0  0  0  0  0  0  0  0  0  0  0  0
   -0.9914   -1.1726   -1.0524 H   0  0  0  0  0  0  0  0  0  0  0  0
    2.8852    0.5425   -1.0160 H   0  0  0  0  0  0  0  0  0  0  0  0
    2.2606    1.1438    0.5412 H   0  0  0  0  0  0  0  0  0  0  0  0
    2.6665   -1.1088    1.5586 H   0  0  0  0  0  0  0  0  0  0  0  0
    3.2396   -1.7149    0.0009 H   0  0  0  0  0  0  0  0  0  0  0  0
    4.1639   -0.4735    0.8618 H   0  0  0  0  0  0  0  0  0  0  0  0
  1  2  1  0  0  0  0
  2  3  1  0  0  0  0
  3  4  1  0  0  0  0
  4  5  2  0  0  0  0
  4  6  1  0  0  0  0
  6  7  1  0  0  0  0
  7  8  1  0  0  0  0
  1  9  1  0  0  0  0
  1 10  1  0  0  0  0
  1 11  1  0  0  0  0
  2 12  1  0  0  0  0
  2 13  1  0  0  0  0
  3 14  1  0  0  0  0
  3 15  1  0  0  0  0
  7 16  1  0  0  0  0
  7 17  1  0  0  0  0
  8 18  1  0  0  0  0
  8 19  1  0  0  0  0
  8 20  1  0  0  0  0
M  END
