 xtb: 6.7.1 (edcfbbe)
          04112516443D

 20 19  0     0  0            999 V2000
   -3.5209   -0.6959    0.4551 C   0  0  0  0  0  0  0  0  0  0  0  0
   -2.1606   -0.0228    0.5851 C   0  0  0  0  0  0  0  0  0  0  0  0
   -1.2291   -0.4272   -0.5675 C   0  0  0  0  0  0  0  0  0  0  0  0
    0.0940    0.2704   -0.4029 C   0  0  0  0  0  0  0  0  0  0  0  0
    0.3902    1.3268   -0.9224 O   0  0  0  0  0  0  0  0  0  0  0  0
    0.8891   -0.3900    0.4288 O   0  0  0  0  0  0  0  0  0  0  0  0
    2.1808    0.1635    0.7311 C   0  0  0  0  0  0  0  0  0  0  0  0
    3.2205   -0.2886   -0.2828 C   0  0  0  0  0  0  0  0  0  0  0  0
   -3.9989   -0.4115   -0.4787 H   0  0  0  0  0  0  0  0  0  0  0  0
   -3.4137   -1.7773    0.4735 H   0  0  0  0  0  0  0  0  0  0  0  0
   -4.1655   -0.3978    1.2774 H   0  0  0  0  0  0  0  0  0  0  0  0
   -1.6966   -0.3070    1.5314 H   0  0  0  0  0  0  0  0  0  0  0  0
   -2.2819    1.0626    0.5797 H   0  0  0  0  0  0  0  0  0  0  0  0
   -1.6669   -0.1279   -1.5193 H   0  0  0  0  0  0  0  0  0  0  0  0
   -1.0693   -1.5045   -0.5473 H   0  0  0  0  0  0  0  0  0  0  0  0
    2.0996    1.2547    0.7397 H   0  0  0  0  0  0  0  0  0  0  0  0
    2.4129   -0.2080    1.7297 H   0  0  0  0  0  0  0  0  0  0  0  0
    4.1945    0.0921    0.0067 H   0  0  0  0  0  0  0  0  0  0  0  0
    3.2561   -1.3739   -0.3238 H   0  0  0  0  0  0  0  0  0  0  0  0
    2.9700    0.0956   -1.2692 H   0  0  0  0  0  0  0  0  0  0  0  0
  1  2  1  0  0  0  0
  2  3  1  0  0  0  0
  3  4  1  0  0  0  0
  4  5  2  0  0  0  0
  4  6  1  0  0  0  0
  6  7  1  0  0  0  0
  7  8  1  0  0  0  0
  1  9  1  0  0  0  0
  1 10  1  0  0  0  0
  1 11  1  0  0  0  0
  2 12  1  0  0  0  0
  2 13  1  0  0  0  0
  3 14  1  0  0  0  0
  3 15  1  0  0  0  0
  7 16  1  0  0  0  0
  7 17  1  0  0  0  0
  8 18  1  0  0  0  0
  8 19  1  0  0  0  0
  8 20  1  0  0  0  0
M  END
