 xtb: 6.7.1 (edcfbbe)
          04112512513D

 21 20  0     0  0            999 V2000
    2.2585    1.0833    0.7766 C   0  0  0  0  0  0  0  0  0  0  0  0
    1.3785    0.4029   -0.2595 C   0  0  0  0  0  0  0  0  0  0  0  0
    2.1658   -0.5510   -1.1429 C   0  0  0  0  0  0  0  0  0  0  0  0
    0.0281   -0.5230    0.6036 S   0  0  0  0  0  0  0  0  0  0  0  0
   -1.4790    0.3157   -0.0582 C   0  0  0  0  0  0  0  0  0  0  0  0
   -1.7510   -0.1249   -1.4866 C   0  0  0  0  0  0  0  0  0  0  0  0
   -2.6372   -0.0162    0.8687 C   0  0  0  0  0  0  0  0  0  0  0  0
    1.6673    1.7469    1.4034 H   0  0  0  0  0  0  0  0  0  0  0  0
    2.7296    0.3384    1.4138 H   0  0  0  0  0  0  0  0  0  0  0  0
    3.0340    1.6646    0.2824 H   0  0  0  0  0  0  0  0  0  0  0  0
    0.8714    1.1528   -0.8703 H   0  0  0  0  0  0  0  0  0  0  0  0
    1.5103   -1.0416   -1.8587 H   0  0  0  0  0  0  0  0  0  0  0  0
    2.6413   -1.3163   -0.5339 H   0  0  0  0  0  0  0  0  0  0  0  0
    2.9348   -0.0060   -1.6862 H   0  0  0  0  0  0  0  0  0  0  0  0
   -1.2632    1.3870   -0.0178 H   0  0  0  0  0  0  0  0  0  0  0  0
   -2.6373    0.3793   -1.8660 H   0  0  0  0  0  0  0  0  0  0  0  0
   -0.9131    0.1144   -2.1380 H   0  0  0  0  0  0  0  0  0  0  0  0
   -1.9175   -1.1993   -1.5175 H   0  0  0  0  0  0  0  0  0  0  0  0
   -3.5372    0.4940    0.5337 H   0  0  0  0  0  0  0  0  0  0  0  0
   -2.4116    0.2950    1.8857 H   0  0  0  0  0  0  0  0  0  0  0  0
   -2.8193   -1.0884    0.8700 H   0  0  0  0  0  0  0  0  0  0  0  0
  1  2  1  0  0  0  0
  2  3  1  0  0  0  0
  2  4  1  0  0  0  0
  4  5  1  0  0  0  0
  5  6  1  0  0  0  0
  5  7  1  0  0  0  0
  1  8  1  0  0  0  0
  1  9  1  0  0  0  0
  1 10  1  0  0  0  0
  2 11  1  0  0  0  0
  3 12  1  0  0  0  0
  3 13  1  0  0  0  0
  3 14  1  0  0  0  0
  5 15  1  0  0  0  0
  6 16  1  0  0  0  0
  6 17  1  0  0  0  0
  6 18  1  0  0  0  0
  7 19  1  0  0  0  0
  7 20  1  0  0  0  0
  7 21  1  0  0  0  0
M  END
