 xtb: 6.7.1 (edcfbbe)
          04112514553D

 31 32  0     0  0            999 V2000
   -3.7291    0.9330   -1.6269 C   0  0  0  0  0  0  0  0  0  0  0  0
   -3.2823   -0.2692   -0.7902 C   0  0  0  0  0  0  0  0  0  0  0  0
   -3.5609   -1.1918   -1.3063 H   0  0  0  0  0  0  0  0  0  0  0  0
   -1.7816   -0.2501   -0.5922 C   0  0  0  0  0  0  0  0  0  0  0  0
   -0.9651   -1.1752   -1.2310 C   0  0  0  0  0  0  0  0  0  0  0  0
    0.4069   -1.1328   -1.0740 C   0  0  0  0  0  0  0  0  0  0  0  0
    1.0189   -0.1768   -0.2653 C   0  0  0  0  0  0  0  0  0  0  0  0
    0.1762    0.7360    0.3622 C   0  0  0  0  0  0  0  0  0  0  0  0
   -1.1942    0.7198    0.2099 C   0  0  0  0  0  0  0  0  0  0  0  0
    0.7096    1.7181    1.1468 F   0  0  0  0  0  0  0  0  0  0  0  0
    2.4808   -0.1474   -0.1007 C   0  0  0  0  0  0  0  0  0  0  0  0
    3.0588    0.0091    1.1561 C   0  0  0  0  0  0  0  0  0  0  0  0
    4.4347    0.0226    1.2955 C   0  0  0  0  0  0  0  0  0  0  0  0
    5.2499   -0.1158    0.1846 C   0  0  0  0  0  0  0  0  0  0  0  0
    4.6827   -0.2708   -1.0697 C   0  0  0  0  0  0  0  0  0  0  0  0
    3.3079   -0.2903   -1.2127 C   0  0  0  0  0  0  0  0  0  0  0  0
   -3.9301   -0.2324    0.5862 C   0  0  0  0  0  0  0  0  0  0  0  0
   -4.1912    0.7915    1.1724 O   0  0  0  0  0  0  0  0  0  0  0  0
   -4.1705   -1.4061    1.1619 O   0  0  0  0  0  0  0  0  0  0  0  0
   -4.7933    0.8678   -1.8379 H   0  0  0  0  0  0  0  0  0  0  0  0
   -3.5454    1.8550   -1.0823 H   0  0  0  0  0  0  0  0  0  0  0  0
   -3.1794    0.9578   -2.5632 H   0  0  0  0  0  0  0  0  0  0  0  0
   -1.4011   -1.9312   -1.8651 H   0  0  0  0  0  0  0  0  0  0  0  0
    1.0267   -1.8631   -1.5697 H   0  0  0  0  0  0  0  0  0  0  0  0
   -1.7924    1.4563    0.7240 H   0  0  0  0  0  0  0  0  0  0  0  0
    2.4297    0.1093    2.0282 H   0  0  0  0  0  0  0  0  0  0  0  0
    4.8706    0.1415    2.2760 H   0  0  0  0  0  0  0  0  0  0  0  0
    6.3233   -0.1013    0.2963 H   0  0  0  0  0  0  0  0  0  0  0  0
    5.3140   -0.3751   -1.9391 H   0  0  0  0  0  0  0  0  0  0  0  0
    2.8677   -0.3950   -2.1929 H   0  0  0  0  0  0  0  0  0  0  0  0
   -3.9465   -2.1814    0.6155 H   0  0  0  0  0  0  0  0  0  0  0  0
  1  2  1  0  0  0  0
  2  3  1  0  0  0  0
  2  4  1  0  0  0  0
  4  5  4  0  0  0  0
  5  6  4  0  0  0  0
  6  7  4  0  0  0  0
  7  8  4  0  0  0  0
  4  9  4  0  0  0  0
  8  9  4  0  0  0  0
  8 10  1  0  0  0  0
  7 11  1  0  0  0  0
 11 12  4  0  0  0  0
 12 13  4  0  0  0  0
 13 14  4  0  0  0  0
 14 15  4  0  0  0  0
 11 16  4  0  0  0  0
 15 16  4  0  0  0  0
  2 17  1  0  0  0  0
 17 18  2  0  0  0  0
 17 19  1  0  0  0  0
  1 20  1  0  0  0  0
  1 21  1  0  0  0  0
  1 22  1  0  0  0  0
  5 23  1  0  0  0  0
  6 24  1  0  0  0  0
  9 25  1  0  0  0  0
 12 26  1  0  0  0  0
 13 27  1  0  0  0  0
 14 28  1  0  0  0  0
 15 29  1  0  0  0  0
 16 30  1  0  0  0  0
 19 31  1  0  0  0  0
M  END
