33
 xtb: 6.7.1 (edcfbbe)
C           -4.63271170843509       -0.97094493782435        0.27575524142105
C           -3.95065428166994       -2.17571587454369        0.09805989881335
C           -2.57284312262164       -2.18203350944602       -0.07310088381485
C           -1.85564554170707       -0.98257123255391       -0.06980729993459
C           -2.54392724032660        0.22829556328182        0.11146970355183
C           -3.93137501139846        0.22561325466739        0.28360350442835
C           -1.80738053716866        1.50377226922588        0.12293072799959
O           -2.39789834804654        2.57521952424076        0.29589446367212
C           -0.33796871995433        1.46172310929085       -0.07853213822424
C            0.33916309919757        2.66937155557602       -0.07186819595559
C            1.72537717419609        2.68687877764369       -0.25551060797296
C            2.43105432119127        1.52218821643912       -0.44110455870496
C            1.77760533471149        0.26083543173662       -0.46157734019651
C            0.35100566370310        0.23133816348165       -0.27197801437391
C           -0.38405689443202       -1.01821539243516       -0.26322841609654
O            0.16860372936950       -2.13106375837248       -0.41812400120291
N            2.47105254508603       -0.87811921293147       -0.67863258880379
C            3.91788760716631       -1.01970402080149       -0.74895041049080
C            4.55761082757161       -1.29099907410411        0.60777745926136
O            4.45104375383770       -0.18259873435782        1.51256449462323
H           -5.70953706553857       -0.96972783304521        0.40765121950552
H           -4.49827926637466       -3.11247982541751        0.09284697620553
H           -2.04235908412378       -3.11691495852112       -0.21106950298169
H           -4.44901024125175        1.16820673496082        0.42163106629573
H           -0.20981773274547        3.59101310658213        0.07638061042671
H            2.25729340805623        3.63280558993076       -0.24872513883856
H            3.50389658649766        1.57085425787745       -0.57044577263829
H            1.91493907005697       -1.72696418398354       -0.61599838701058
H            4.37276070987644       -0.14167837923373       -1.21400344285291
H            4.13394460323875       -1.87574516033797       -1.39770509065768
H            5.62757420503332       -1.46614256116932        0.45614938455220
H            4.11955180717738       -2.19376946424508        1.05449599583970
H            3.53090399479137       -0.12224045713394        1.80067049605432
