20
 xtb: 6.7.1 (edcfbbe)
C           -2.27093224421842       -1.01839076740222        0.95804417776607
C           -2.08355831027976       -0.70539655115849       -0.52322624859659
C           -1.46756488569970        0.68071018812689       -0.75177775606280
C           -0.12581301206838        0.85516171866305       -0.09558551434818
O            0.18343088755542        1.78940546322141        0.62900464423625
O            0.71977672587819       -0.14188133791738       -0.40391929884953
C            2.05444581445624       -0.07791117225308        0.19226219022025
C            2.78608542826136       -1.32725332345655       -0.22597497483928
H           -1.31011903341388       -1.03577220610403        1.48640177151615
H           -2.90434134522394       -0.26578238673292        1.44023814238421
H           -2.74249659582394       -1.99599247902950        1.09668611282099
H           -3.05120620740343       -0.72960214478181       -1.03554274043732
H           -1.45617271604265       -1.46888725673154       -0.99428920049020
H           -2.12261413545394        1.46435543966530       -0.36261876643957
H           -1.32946589520344        0.85890963794531       -1.82565968796876
H            2.54846688075034        0.82918552414586       -0.16903028079206
H            1.94303054838605       -0.01301708496455        1.27865678863828
H            3.79283651274268       -1.31169805317341        0.20157835034643
H            2.27232154214613       -2.22199186819127        0.13759921990408
H            2.87565470289639       -1.38595561111108       -1.31449530300769
