 xtb: 6.7.1 (edcfbbe)
          04112515553D

 17 16  0     0  0            999 V2000
    0.5597   -2.3238   -0.2418 C   0  0  0  0  0  0  0  0  0  0  0  0
    1.0702   -1.0494    0.1440 O   0  0  0  0  0  0  0  0  0  0  0  0
    0.2472    0.0143   -0.1696 C   0  0  0  0  0  0  0  0  0  0  0  0
    0.9762    1.1278    0.1987 O   0  0  0  0  0  0  0  0  0  0  0  0
    0.3551    2.3715   -0.1195 C   0  0  0  0  0  0  0  0  0  0  0  0
   -0.9667   -0.0562    0.5214 O   0  0  0  0  0  0  0  0  0  0  0  0
   -2.1530   -0.0822   -0.2697 C   0  0  0  0  0  0  0  0  0  0  0  0
    1.3422   -3.0298    0.0186 H   0  0  0  0  0  0  0  0  0  0  0  0
    0.3699   -2.3460   -1.3193 H   0  0  0  0  0  0  0  0  0  0  0  0
   -0.3552   -2.5543    0.3079 H   0  0  0  0  0  0  0  0  0  0  0  0
    0.0340    0.0327   -1.2678 H   0  0  0  0  0  0  0  0  0  0  0  0
    0.1567    2.4326   -1.1938 H   0  0  0  0  0  0  0  0  0  0  0  0
    1.0757    3.1281    0.1753 H   0  0  0  0  0  0  0  0  0  0  0  0
   -0.5724    2.4935    0.4437 H   0  0  0  0  0  0  0  0  0  0  0  0
   -2.1695   -0.9580   -0.9225 H   0  0  0  0  0  0  0  0  0  0  0  0
   -2.2448    0.8269   -0.8685 H   0  0  0  0  0  0  0  0  0  0  0  0
   -2.9658   -0.1382    0.4491 H   0  0  0  0  0  0  0  0  0  0  0  0
  1  2  1  0  0  0  0
  2  3  1  0  0  0  0
  3  4  1  0  0  0  0
  4  5  1  0  0  0  0
  3  6  1  0  0  0  0
  6  7  1  0  0  0  0
  1  8  1  0  0  0  0
  1  9  1  0  0  0  0
  1 10  1  0  0  0  0
  3 11  1  0  0  0  0
  5 12  1  0  0  0  0
  5 13  1  0  0  0  0
  5 14  1  0  0  0  0
  7 15  1  0  0  0  0
  7 16  1  0  0  0  0
  7 17  1  0  0  0  0
M  END
