22
 xtb: 6.7.1 (edcfbbe)
C            2.22797512751471        1.13155328040093       -0.53639599219509
C            1.19531265278456        0.31469856211345        0.23315694125964
C            1.81212108676672       -1.00241839516253        0.71159213873766
N           -0.00554107295064        0.11475079522338       -0.61100737894544
C           -1.20542203679837       -0.30037579080701        0.14876440146981
C           -2.15113207440394       -1.05244949260517       -0.77862241739637
C           -1.89821747613166        0.91766918032531        0.75324248885729
H            1.83174311465196        2.11342614847069       -0.81272339119610
H            3.13129625254669        1.28057321048635        0.06434727836112
H            2.51846248306868        0.60835456799510       -1.45558519897769
H            0.88137138587150        0.89402478509082        1.11028643009800
H            2.18749524384161       -1.57376043734127       -0.14671666996907
H            1.08605152860240       -1.62350146444021        1.24542595378021
H            2.65410676306991       -0.81854500699927        1.38791902037541
H            0.22158519626310       -0.64141166731143       -1.25396288933051
H           -0.93463188536903       -0.98159268277798        0.97402004066767
H           -3.05119638377144       -1.36171335070515       -0.23827787065842
H           -2.46026709141445       -0.41714955562095       -1.61701827182812
H           -1.67433480604317       -1.95164651349456       -1.18537301751946
H           -2.28826923816626        1.56800793756212       -0.03822004518832
H           -1.21321442253962        1.50636446444352        1.37161002278513
H           -2.73531425497476        0.60670314914696        1.38737748754958
