17
 xtb: 6.7.1 (edcfbbe)
C            2.44784893017810       -1.09664204906728        0.11946247798335
C            2.57426310919365        0.40930111150708       -0.09697143602949
C            1.37554574711175        1.22496293120988        0.39645177410966
C            0.03756980472846        0.86689864741895       -0.28637295409232
C           -0.76897932877621       -0.09037804551912        0.56440889756596
Cl          -2.34847792386636       -0.55130793798252       -0.27727011978150
H            3.36198144611392       -1.61296992408329       -0.19181329540284
H            1.62126945493403       -1.51978473455051       -0.46138597869191
H            2.27411381511581       -1.33052968106337        1.17618073096533
H            3.47373612229934        0.77278168993206        0.41537863299505
H            2.72263142575307        0.61086508064806       -1.16602283296353
H            1.58289247708653        2.28637996673719        0.22302233740194
H            1.27710954406366        1.10734121106175        1.48456040357991
H            0.22816147047003        0.42322770053884       -1.27060227728501
H           -0.55694409413238        1.77169234197073       -0.44775930893325
H           -0.25570466964993       -1.03366807304875        0.75379657912835
H           -1.06565443797876        0.36200350344148        1.51271128405333
