31
 xtb: 6.7.1 (edcfbbe)
C           -3.77916489548189        0.59221069074503       -1.80048546162093
C           -3.30409321792314       -0.39924361499256       -0.74058844111256
H           -3.56351976862901       -1.41993029444085       -1.03906576839892
C           -1.79946328803317       -0.34997467593051       -0.53574367550792
C           -1.00097657929031       -1.46256521871479       -0.80217569167969
C            0.37716302979876       -1.39808295884310       -0.63780298651150
C            1.01523649796092       -0.22948306576928       -0.19949601909836
C            0.17855145396024        0.85483501455282        0.07183165882965
C           -1.19336501264778        0.82384666099729       -0.08314993294976
F            0.72507237123498        2.00373390382168        0.55080095044234
C            2.48145393417670       -0.17159252557396       -0.03323101035379
C            3.15968884724682       -1.24522314881242        0.55985851616004
C            4.54391148683669       -1.22143310020426        0.69437397007469
C            5.27390860697364       -0.12656550857845        0.23724763645975
C            4.60924779556318        0.94425335633759       -0.35688428712447
C            3.22496114721027        0.92555780589707       -0.49038823219633
C           -3.97686098915681       -0.14721458808265        0.59324610375628
O           -4.54073133682906        0.88096604663728        0.91860900764307
O           -3.86414183912408       -1.21258157335311        1.41793186278564
H           -4.86111034360690        0.51576124670187       -1.94011542686298
H           -3.53828934717793        1.61964389350913       -1.51636729020118
H           -3.28800589266752        0.37160836706109       -2.75181011139364
H           -1.45997373648858       -2.38157099059083       -1.15289743970376
H            0.98662886647049       -2.26526140280652       -0.87209290184047
H           -1.77457292693644        1.70847826521560        0.15878186521080
H            2.59488097858929       -2.09522915959542        0.93053372499583
H            5.05250797714604       -2.05840914655499        1.16259034769196
H            6.35401972705447       -0.10797044139033        0.34241206041642
H            5.17137556797483        1.79737785872934       -0.72410519561802
H            2.72005157543880        1.75548921103618       -0.97288447345120
H           -4.28335743921918       -0.99013559754908        2.26787232324304
