 xtb: 6.7.1 (edcfbbe)
          04112512243D

 22 21  0     0  0            999 V2000
    1.8336   -0.1670    1.1688 C   0  0  0  0  0  0  0  0  0  0  0  0
    1.3574   -0.3926   -0.2746 C   0  0  0  0  0  0  0  0  0  0  0  0
    1.7348    0.8000   -1.1555 C   0  0  0  0  0  0  0  0  0  0  0  0
   -0.0571   -0.6995   -0.4221 N   0  0  0  0  0  0  0  0  0  0  0  0
   -1.0467    0.2449    0.0846 C   0  0  0  0  0  0  0  0  0  0  0  0
   -1.6048   -0.1438    1.4581 C   0  0  0  0  0  0  0  0  0  0  0  0
   -2.1882    0.3386   -0.9329 C   0  0  0  0  0  0  0  0  0  0  0  0
    1.3802    0.7278    1.5895 H   0  0  0  0  0  0  0  0  0  0  0  0
    1.5757   -1.0198    1.7941 H   0  0  0  0  0  0  0  0  0  0  0  0
    2.9133   -0.0433    1.1851 H   0  0  0  0  0  0  0  0  0  0  0  0
    1.8799   -1.2743   -0.6676 H   0  0  0  0  0  0  0  0  0  0  0  0
    1.3438    1.7295   -0.7499 H   0  0  0  0  0  0  0  0  0  0  0  0
    1.3305    0.6590   -2.1536 H   0  0  0  0  0  0  0  0  0  0  0  0
    2.8162    0.8840   -1.2198 H   0  0  0  0  0  0  0  0  0  0  0  0
   -0.2561   -1.6255   -0.0630 H   0  0  0  0  0  0  0  0  0  0  0  0
   -0.5751    1.2292    0.1600 H   0  0  0  0  0  0  0  0  0  0  0  0
   -2.3266    0.5967    1.7939 H   0  0  0  0  0  0  0  0  0  0  0  0
   -2.1059   -1.1084    1.3957 H   0  0  0  0  0  0  0  0  0  0  0  0
   -0.8125   -0.2122    2.1993 H   0  0  0  0  0  0  0  0  0  0  0  0
   -1.7945    0.6234   -1.9041 H   0  0  0  0  0  0  0  0  0  0  0  0
   -2.9207    1.0765   -0.6165 H   0  0  0  0  0  0  0  0  0  0  0  0
   -2.6797   -0.6259   -1.0305 H   0  0  0  0  0  0  0  0  0  0  0  0
  1  2  1  0  0  0  0
  2  3  1  0  0  0  0
  2  4  1  0  0  0  0
  4  5  1  0  0  0  0
  5  6  1  0  0  0  0
  5  7  1  0  0  0  0
  1  8  1  0  0  0  0
  1  9  1  0  0  0  0
  1 10  1  0  0  0  0
  2 11  1  0  0  0  0
  3 12  1  0  0  0  0
  3 13  1  0  0  0  0
  3 14  1  0  0  0  0
  4 15  1  0  0  0  0
  5 16  1  0  0  0  0
  6 17  1  0  0  0  0
  6 18  1  0  0  0  0
  6 19  1  0  0  0  0
  7 20  1  0  0  0  0
  7 21  1  0  0  0  0
  7 22  1  0  0  0  0
M  END
