 xtb: 6.7.1 (edcfbbe)
          04112513313D

 31 32  0     0  0            999 V2000
   -3.7830    0.9398   -1.6422 C   0  0  0  0  0  0  0  0  0  0  0  0
   -3.3077   -0.1015   -0.6279 C   0  0  0  0  0  0  0  0  0  0  0  0
   -3.5831   -1.1073   -0.9526 H   0  0  0  0  0  0  0  0  0  0  0  0
   -1.8089   -0.0392   -0.4341 C   0  0  0  0  0  0  0  0  0  0  0  0
   -1.2031    1.0988    0.0869 C   0  0  0  0  0  0  0  0  0  0  0  0
    0.1668    1.1583    0.2479 C   0  0  0  0  0  0  0  0  0  0  0  0
    0.9893    0.0858   -0.0970 C   0  0  0  0  0  0  0  0  0  0  0  0
    0.3552   -1.0396   -0.6118 C   0  0  0  0  0  0  0  0  0  0  0  0
   -1.0120   -1.1200   -0.7837 C   0  0  0  0  0  0  0  0  0  0  0  0
    1.0985   -2.1188   -0.9971 F   0  0  0  0  0  0  0  0  0  0  0  0
    2.4480    0.1628    0.0802 C   0  0  0  0  0  0  0  0  0  0  0  0
    3.1607   -0.8931    0.6422 C   0  0  0  0  0  0  0  0  0  0  0  0
    4.5299   -0.7997    0.8130 C   0  0  0  0  0  0  0  0  0  0  0  0
    5.2053    0.3445    0.4227 C   0  0  0  0  0  0  0  0  0  0  0  0
    4.5039    1.3993   -0.1382 C   0  0  0  0  0  0  0  0  0  0  0  0
    3.1347    1.3120   -0.3060 C   0  0  0  0  0  0  0  0  0  0  0  0
   -3.9360    0.1331    0.7324 C   0  0  0  0  0  0  0  0  0  0  0  0
   -4.1788    1.2194    1.2077 O   0  0  0  0  0  0  0  0  0  0  0  0
   -4.1616   -1.0005    1.3739 O   0  0  0  0  0  0  0  0  0  0  0  0
   -3.6337    1.9413   -1.2485 H   0  0  0  0  0  0  0  0  0  0  0  0
   -3.2246    0.8339   -2.5675 H   0  0  0  0  0  0  0  0  0  0  0  0
   -4.8416    0.8055   -1.8480 H   0  0  0  0  0  0  0  0  0  0  0  0
   -1.8140    1.9382    0.3816 H   0  0  0  0  0  0  0  0  0  0  0  0
    0.6194    2.0434    0.6663 H   0  0  0  0  0  0  0  0  0  0  0  0
   -1.4360   -2.0226   -1.1940 H   0  0  0  0  0  0  0  0  0  0  0  0
    2.6400   -1.7852    0.9571 H   0  0  0  0  0  0  0  0  0  0  0  0
    5.0704   -1.6242    1.2530 H   0  0  0  0  0  0  0  0  0  0  0  0
    6.2743    0.4136    0.5548 H   0  0  0  0  0  0  0  0  0  0  0  0
    5.0261    2.2924   -0.4468 H   0  0  0  0  0  0  0  0  0  0  0  0
    2.5915    2.1287   -0.7571 H   0  0  0  0  0  0  0  0  0  0  0  0
   -4.5317   -0.8671    2.2688 H   0  0  0  0  0  0  0  0  0  0  0  0
  1  2  1  0  0  0  0
  2  3  1  0  0  0  0
  2  4  1  0  0  0  0
  4  5  4  0  0  0  0
  5  6  4  0  0  0  0
  6  7  4  0  0  0  0
  7  8  4  0  0  0  0
  4  9  4  0  0  0  0
  8  9  4  0  0  0  0
  8 10  1  0  0  0  0
  7 11  1  0  0  0  0
 11 12  4  0  0  0  0
 12 13  4  0  0  0  0
 13 14  4  0  0  0  0
 14 15  4  0  0  0  0
 11 16  4  0  0  0  0
 15 16  4  0  0  0  0
  2 17  1  0  0  0  0
 17 18  2  0  0  0  0
 17 19  1  0  0  0  0
  1 20  1  0  0  0  0
  1 21  1  0  0  0  0
  1 22  1  0  0  0  0
  5 23  1  0  0  0  0
  6 24  1  0  0  0  0
  9 25  1  0  0  0  0
 12 26  1  0  0  0  0
 13 27  1  0  0  0  0
 14 28  1  0  0  0  0
 15 29  1  0  0  0  0
 16 30  1  0  0  0  0
 19 31  1  0  0  0  0
M  END
