 xtb: 6.7.1 (edcfbbe)
          04112515533D

 20 19  0     0  0            999 V2000
   -2.1728   -1.3848    0.4932 C   0  0  0  0  0  0  0  0  0  0  0  0
   -2.0584   -0.4246   -0.6843 C   0  0  0  0  0  0  0  0  0  0  0  0
   -1.4702    0.9276   -0.2606 C   0  0  0  0  0  0  0  0  0  0  0  0
   -0.0478    0.7746    0.2138 C   0  0  0  0  0  0  0  0  0  0  0  0
    0.3359    1.0050    1.3422 O   0  0  0  0  0  0  0  0  0  0  0  0
    0.7496    0.3636   -0.7640 O   0  0  0  0  0  0  0  0  0  0  0  0
    2.1356    0.1311   -0.4674 C   0  0  0  0  0  0  0  0  0  0  0  0
    2.3561   -1.2822    0.0502 C   0  0  0  0  0  0  0  0  0  0  0  0
   -2.5843   -2.3367    0.1687 H   0  0  0  0  0  0  0  0  0  0  0  0
   -1.1965   -1.5649    0.9394 H   0  0  0  0  0  0  0  0  0  0  0  0
   -2.8217   -0.9706    1.2614 H   0  0  0  0  0  0  0  0  0  0  0  0
   -3.0473   -0.2535   -1.1110 H   0  0  0  0  0  0  0  0  0  0  0  0
   -1.4228   -0.8588   -1.4573 H   0  0  0  0  0  0  0  0  0  0  0  0
   -2.0543    1.3630    0.5500 H   0  0  0  0  0  0  0  0  0  0  0  0
   -1.4673    1.6045   -1.1154 H   0  0  0  0  0  0  0  0  0  0  0  0
    2.6503    0.2910   -1.4153 H   0  0  0  0  0  0  0  0  0  0  0  0
    2.4628    0.8677    0.2727 H   0  0  0  0  0  0  0  0  0  0  0  0
    1.9741   -2.0069   -0.6638 H   0  0  0  0  0  0  0  0  0  0  0  0
    3.4179   -1.4499    0.1981 H   0  0  0  0  0  0  0  0  0  0  0  0
    1.8432   -1.4155    1.0004 H   0  0  0  0  0  0  0  0  0  0  0  0
  1  2  1  0  0  0  0
  2  3  1  0  0  0  0
  3  4  1  0  0  0  0
  4  5  2  0  0  0  0
  4  6  1  0  0  0  0
  6  7  1  0  0  0  0
  7  8  1  0  0  0  0
  1  9  1  0  0  0  0
  1 10  1  0  0  0  0
  1 11  1  0  0  0  0
  2 12  1  0  0  0  0
  2 13  1  0  0  0  0
  3 14  1  0  0  0  0
  3 15  1  0  0  0  0
  7 16  1  0  0  0  0
  7 17  1  0  0  0  0
  8 18  1  0  0  0  0
  8 19  1  0  0  0  0
  8 20  1  0  0  0  0
M  END
