 xtb: 6.7.1 (edcfbbe)
          04112515593D

 20 19  0     0  0            999 V2000
   -3.9308    0.0711   -0.2942 C   0  0  0  0  0  0  0  0  0  0  0  0
   -2.6986   -0.2431    0.5456 C   0  0  0  0  0  0  0  0  0  0  0  0
   -1.4096    0.0676   -0.2108 C   0  0  0  0  0  0  0  0  0  0  0  0
   -0.1726   -0.2429    0.6267 C   0  0  0  0  0  0  0  0  0  0  0  0
    1.1063    0.0362   -0.1180 C   0  0  0  0  0  0  0  0  0  0  0  0
    1.1841    0.3802   -1.2778 O   0  0  0  0  0  0  0  0  0  0  0  0
    2.1637   -0.1538    0.6670 O   0  0  0  0  0  0  0  0  0  0  0  0
    3.4733    0.0547    0.1280 C   0  0  0  0  0  0  0  0  0  0  0  0
   -3.9274   -0.5166   -1.2092 H   0  0  0  0  0  0  0  0  0  0  0  0
   -4.8383   -0.1570    0.2588 H   0  0  0  0  0  0  0  0  0  0  0  0
   -3.9478    1.1239   -0.5659 H   0  0  0  0  0  0  0  0  0  0  0  0
   -2.7276    0.3440    1.4655 H   0  0  0  0  0  0  0  0  0  0  0  0
   -2.7088   -1.2990    0.8230 H   0  0  0  0  0  0  0  0  0  0  0  0
   -1.3931    1.1214   -0.4963 H   0  0  0  0  0  0  0  0  0  0  0  0
   -1.3709   -0.5153   -1.1331 H   0  0  0  0  0  0  0  0  0  0  0  0
   -0.1600   -1.2953    0.9183 H   0  0  0  0  0  0  0  0  0  0  0  0
   -0.1623    0.3470    1.5448 H   0  0  0  0  0  0  0  0  0  0  0  0
    4.0873   -0.7792    0.4590 H   0  0  0  0  0  0  0  0  0  0  0  0
    3.8637    0.9933    0.5193 H   0  0  0  0  0  0  0  0  0  0  0  0
    3.4239    0.0956   -0.9606 H   0  0  0  0  0  0  0  0  0  0  0  0
  1  2  1  0  0  0  0
  2  3  1  0  0  0  0
  3  4  1  0  0  0  0
  4  5  1  0  0  0  0
  5  6  2  0  0  0  0
  5  7  1  0  0  0  0
  7  8  1  0  0  0  0
  1  9  1  0  0  0  0
  1 10  1  0  0  0  0
  1 11  1  0  0  0  0
  2 12  1  0  0  0  0
  2 13  1  0  0  0  0
  3 14  1  0  0  0  0
  3 15  1  0  0  0  0
  4 16  1  0  0  0  0
  4 17  1  0  0  0  0
  8 18  1  0  0  0  0
  8 19  1  0  0  0  0
  8 20  1  0  0  0  0
M  END
