 xtb: 6.7.1 (edcfbbe)
          04112516483D

 33 35  0     0  0            999 V2000
   -4.7339   -0.8643    0.1804 C   0  0  0  0  0  0  0  0  0  0  0  0
   -4.0949   -2.0942    0.1044 C   0  0  0  0  0  0  0  0  0  0  0  0
   -2.7175   -2.1534    0.0023 C   0  0  0  0  0  0  0  0  0  0  0  0
   -1.9543   -0.9880   -0.0258 C   0  0  0  0  0  0  0  0  0  0  0  0
   -2.6003    0.2510    0.0506 C   0  0  0  0  0  0  0  0  0  0  0  0
   -3.9895    0.2996    0.1534 C   0  0  0  0  0  0  0  0  0  0  0  0
   -1.8318    1.5021    0.0245 C   0  0  0  0  0  0  0  0  0  0  0  0
   -2.3873    2.5978    0.0876 O   0  0  0  0  0  0  0  0  0  0  0  0
   -0.3682    1.3811   -0.0802 C   0  0  0  0  0  0  0  0  0  0  0  0
    0.3595    2.5585   -0.0908 C   0  0  0  0  0  0  0  0  0  0  0  0
    1.7496    2.5284   -0.1730 C   0  0  0  0  0  0  0  0  0  0  0  0
    2.4096    1.3322   -0.2570 C   0  0  0  0  0  0  0  0  0  0  0  0
    1.7058    0.1026   -0.2686 C   0  0  0  0  0  0  0  0  0  0  0  0
    0.2808    0.1259   -0.1653 C   0  0  0  0  0  0  0  0  0  0  0  0
   -0.4864   -1.0995   -0.1370 C   0  0  0  0  0  0  0  0  0  0  0  0
    0.0268   -2.2317   -0.1970 O   0  0  0  0  0  0  0  0  0  0  0  0
    2.3621   -1.0595   -0.3850 N   0  0  0  0  0  0  0  0  0  0  0  0
    3.7895   -1.2179   -0.4981 C   0  0  0  0  0  0  0  0  0  0  0  0
    4.5559   -0.8772    0.8075 C   0  0  0  0  0  0  0  0  0  0  0  0
    5.3959    0.2470    0.6712 O   0  0  0  0  0  0  0  0  0  0  0  0
   -5.8084   -0.8151    0.2603 H   0  0  0  0  0  0  0  0  0  0  0  0
   -4.6715   -3.0057    0.1247 H   0  0  0  0  0  0  0  0  0  0  0  0
   -2.2016   -3.1002   -0.0582 H   0  0  0  0  0  0  0  0  0  0  0  0
   -4.4596    1.2703    0.2109 H   0  0  0  0  0  0  0  0  0  0  0  0
   -0.1775    3.4924   -0.0248 H   0  0  0  0  0  0  0  0  0  0  0  0
    2.3055    3.4527   -0.1646 H   0  0  0  0  0  0  0  0  0  0  0  0
    3.4861    1.3233   -0.2902 H   0  0  0  0  0  0  0  0  0  0  0  0
    1.7822   -1.8930   -0.3226 H   0  0  0  0  0  0  0  0  0  0  0  0
    4.1669   -0.5735   -1.2986 H   0  0  0  0  0  0  0  0  0  0  0  0
    3.9711   -2.2546   -0.7766 H   0  0  0  0  0  0  0  0  0  0  0  0
    5.1330   -1.7431    1.1457 H   0  0  0  0  0  0  0  0  0  0  0  0
    3.8391   -0.6172    1.5900 H   0  0  0  0  0  0  0  0  0  0  0  0
    6.1709    0.0100    0.1437 H   0  0  0  0  0  0  0  0  0  0  0  0
  1  2  4  0  0  0  0
  2  3  4  0  0  0  0
  3  4  4  0  0  0  0
  4  5  4  0  0  0  0
  1  6  4  0  0  0  0
  5  6  4  0  0  0  0
  5  7  1  0  0  0  0
  7  8  2  0  0  0  0
  7  9  1  0  0  0  0
  9 10  4  0  0  0  0
 10 11  4  0  0  0  0
 11 12  2  0  0  0  0
 12 13  4  0  0  0  0
  9 14  4  0  0  0  0
 13 14  4  0  0  0  0
  4 15  1  0  0  0  0
 14 15  1  0  0  0  0
 15 16  2  0  0  0  0
 13 17  4  0  0  0  0
 17 18  1  0  0  0  0
 18 19  1  0  0  0  0
 19 20  1  0  0  0  0
  1 21  1  0  0  0  0
  2 22  1  0  0  0  0
  3 23  1  0  0  0  0
  6 24  1  0  0  0  0
 10 25  1  0  0  0  0
 11 26  1  0  0  0  0
 12 27  1  0  0  0  0
 17 28  1  0  0  0  0
 18 29  1  0  0  0  0
 18 30  1  0  0  0  0
 19 31  1  0  0  0  0
 19 32  1  0  0  0  0
 20 33  1  0  0  0  0
M  END
