 xtb: 6.7.1 (edcfbbe)
          04112515533D

 20 19  0     0  0            999 V2000
   -3.4053   -0.9365    0.3994 C   0  0  0  0  0  0  0  0  0  0  0  0
   -1.9411   -0.5909    0.6429 C   0  0  0  0  0  0  0  0  0  0  0  0
   -1.3577    0.1855   -0.5367 C   0  0  0  0  0  0  0  0  0  0  0  0
    0.0823    0.5899   -0.3569 C   0  0  0  0  0  0  0  0  0  0  0  0
    0.5861    1.5516   -0.9038 O   0  0  0  0  0  0  0  0  0  0  0  0
    0.7460   -0.2188    0.4562 O   0  0  0  0  0  0  0  0  0  0  0  0
    2.1402    0.0392    0.6901 C   0  0  0  0  0  0  0  0  0  0  0  0
    3.0069   -0.6056   -0.3807 C   0  0  0  0  0  0  0  0  0  0  0  0
   -3.8097   -1.4820    1.2475 H   0  0  0  0  0  0  0  0  0  0  0  0
   -3.9929   -0.0324    0.2601 H   0  0  0  0  0  0  0  0  0  0  0  0
   -3.5095   -1.5541   -0.4891 H   0  0  0  0  0  0  0  0  0  0  0  0
   -1.3654   -1.5043    0.7937 H   0  0  0  0  0  0  0  0  0  0  0  0
   -1.8522    0.0114    1.5487 H   0  0  0  0  0  0  0  0  0  0  0  0
   -1.9313    1.0928   -0.7340 H   0  0  0  0  0  0  0  0  0  0  0  0
   -1.4007   -0.4291   -1.4402 H   0  0  0  0  0  0  0  0  0  0  0  0
    2.2964    1.1221    0.7103 H   0  0  0  0  0  0  0  0  0  0  0  0
    2.3364   -0.3915    1.6724 H   0  0  0  0  0  0  0  0  0  0  0  0
    4.0530   -0.4526   -0.1363 H   0  0  0  0  0  0  0  0  0  0  0  0
    2.8029   -1.6715   -0.4362 H   0  0  0  0  0  0  0  0  0  0  0  0
    2.8009   -0.1535   -1.3484 H   0  0  0  0  0  0  0  0  0  0  0  0
  1  2  1  0  0  0  0
  2  3  1  0  0  0  0
  3  4  1  0  0  0  0
  4  5  2  0  0  0  0
  4  6  1  0  0  0  0
  6  7  1  0  0  0  0
  7  8  1  0  0  0  0
  1  9  1  0  0  0  0
  1 10  1  0  0  0  0
  1 11  1  0  0  0  0
  2 12  1  0  0  0  0
  2 13  1  0  0  0  0
  3 14  1  0  0  0  0
  3 15  1  0  0  0  0
  7 16  1  0  0  0  0
  7 17  1  0  0  0  0
  8 18  1  0  0  0  0
  8 19  1  0  0  0  0
  8 20  1  0  0  0  0
M  END
