 xtb: 6.7.1 (edcfbbe)
          04112515533D

 20 19  0     0  0            999 V2000
   -3.3772   -1.0241    0.0692 C   0  0  0  0  0  0  0  0  0  0  0  0
   -1.9516   -0.6454    0.4488 C   0  0  0  0  0  0  0  0  0  0  0  0
   -1.3183    0.2677   -0.6114 C   0  0  0  0  0  0  0  0  0  0  0  0
    0.0681    0.6516   -0.1698 C   0  0  0  0  0  0  0  0  0  0  0  0
    0.3184    1.5024    0.6592 O   0  0  0  0  0  0  0  0  0  0  0  0
    0.9938   -0.0754   -0.7817 O   0  0  0  0  0  0  0  0  0  0  0  0
    2.3721    0.1213   -0.4229 C   0  0  0  0  0  0  0  0  0  0  0  0
    2.7636   -0.7676    0.7476 C   0  0  0  0  0  0  0  0  0  0  0  0
   -3.3906   -1.5474   -0.8833 H   0  0  0  0  0  0  0  0  0  0  0  0
   -3.8060   -1.6738    0.8272 H   0  0  0  0  0  0  0  0  0  0  0  0
   -3.9980   -0.1358   -0.0154 H   0  0  0  0  0  0  0  0  0  0  0  0
   -1.3457   -1.5479    0.5507 H   0  0  0  0  0  0  0  0  0  0  0  0
   -1.9468   -0.1254    1.4092 H   0  0  0  0  0  0  0  0  0  0  0  0
   -1.9160    1.1737   -0.7115 H   0  0  0  0  0  0  0  0  0  0  0  0
   -1.2579   -0.2520   -1.5663 H   0  0  0  0  0  0  0  0  0  0  0  0
    2.9315   -0.1369   -1.3226 H   0  0  0  0  0  0  0  0  0  0  0  0
    2.5193    1.1764   -0.1725 H   0  0  0  0  0  0  0  0  0  0  0  0
    2.5659   -1.8092    0.5090 H   0  0  0  0  0  0  0  0  0  0  0  0
    3.8208   -0.6420    0.9568 H   0  0  0  0  0  0  0  0  0  0  0  0
    2.1932   -0.4914    1.6317 H   0  0  0  0  0  0  0  0  0  0  0  0
  1  2  1  0  0  0  0
  2  3  1  0  0  0  0
  3  4  1  0  0  0  0
  4  5  2  0  0  0  0
  4  6  1  0  0  0  0
  6  7  1  0  0  0  0
  7  8  1  0  0  0  0
  1  9  1  0  0  0  0
  1 10  1  0  0  0  0
  1 11  1  0  0  0  0
  2 12  1  0  0  0  0
  2 13  1  0  0  0  0
  3 14  1  0  0  0  0
  3 15  1  0  0  0  0
  7 16  1  0  0  0  0
  7 17  1  0  0  0  0
  8 18  1  0  0  0  0
  8 19  1  0  0  0  0
  8 20  1  0  0  0  0
M  END
