31
 xtb: 6.7.1 (edcfbbe)
C           -3.55461921445308        1.61320155286428       -0.98156568533492
C           -3.12489339624720        0.17956377942764       -0.67565211229318
H           -3.49760887215192       -0.48528922653762       -1.46021246798738
C           -1.61903749510874       -0.03207558166182       -0.57296381347331
C           -1.09786186696429       -1.31903469000731       -0.85486871132678
C            0.24688294062260       -1.58160717619286       -0.75330259409969
C            1.15508754817670       -0.56916929573963       -0.35756716576111
C            2.54653626985787       -0.81497202870171       -0.24791869727937
C            3.39061703752446        0.20330851825367        0.14168382336462
C            2.88221300316653        1.49468467478040        0.43140218396415
C            1.54047499697276        1.74685840253271        0.32799077911393
C            0.63451080345681        0.72932177271782       -0.06774594941037
C           -0.75488541708688        0.96721756776899       -0.17955898145984
O            4.74649901872663        0.08220804418823        0.28428788308624
C            5.32008928074931       -1.20434419774590        0.00897963009064
C           -3.72787603811515       -0.34878576608939        0.61036353396285
O           -4.18472309189734       -1.47046535372110        0.74974750843373
O           -3.66979722183333        0.54179689864817        1.62173796465785
H           -4.64307978407502        1.66496868374923       -1.07320256098553
H           -3.24872997024860        2.31428627910182       -0.20296607838056
H           -3.11238657514827        1.93206307295170       -1.92918220165070
H           -1.78044065248739       -2.10625130203262       -1.16337160307106
H            0.63075780404772       -2.57202036571726       -0.98122971493076
H            2.91562014554630       -1.80866056836973       -0.47340710196893
H            3.57824741324456        2.27051404508360        0.73426576127236
H            1.15414708557687        2.73752597461056        0.55022140968648
H           -1.12107190556251        1.96324228362496        0.04926006041159
H            4.91640923162707       -1.96577109403824        0.68615646132390
H            6.39159528550626       -1.09359981842267        0.17866063561573
H            5.14050924798903       -1.49848134136133       -1.03145289514817
H           -4.02958298146899        0.12090585353308        2.42165074862133
