 xtb: 6.7.1 (edcfbbe)
          04112515563D

 33 35  0     0  0            999 V2000
   -4.6799   -1.0208   -0.2826 C   0  0  0  0  0  0  0  0  0  0  0  0
   -3.9725   -2.2065   -0.1400 C   0  0  0  0  0  0  0  0  0  0  0  0
   -2.5991   -2.1789    0.0169 C   0  0  0  0  0  0  0  0  0  0  0  0
   -1.9080   -0.9691    0.0326 C   0  0  0  0  0  0  0  0  0  0  0  0
   -2.6229    0.2252   -0.1125 C   0  0  0  0  0  0  0  0  0  0  0  0
   -4.0074    0.1865   -0.2684 C   0  0  0  0  0  0  0  0  0  0  0  0
   -1.9310    1.5198   -0.1034 C   0  0  0  0  0  0  0  0  0  0  0  0
   -2.5453    2.5777   -0.2250 O   0  0  0  0  0  0  0  0  0  0  0  0
   -0.4660    1.4903    0.0543 C   0  0  0  0  0  0  0  0  0  0  0  0
    0.1884    2.7098    0.0331 C   0  0  0  0  0  0  0  0  0  0  0  0
    1.5727    2.7676    0.1678 C   0  0  0  0  0  0  0  0  0  0  0  0
    2.2970    1.6168    0.3263 C   0  0  0  0  0  0  0  0  0  0  0  0
    1.6728    0.3464    0.3644 C   0  0  0  0  0  0  0  0  0  0  0  0
    0.2522    0.2819    0.2167 C   0  0  0  0  0  0  0  0  0  0  0  0
   -0.4426   -0.9881    0.2104 C   0  0  0  0  0  0  0  0  0  0  0  0
    0.1310   -2.0839    0.3405 O   0  0  0  0  0  0  0  0  0  0  0  0
    2.3866   -0.7708    0.5643 N   0  0  0  0  0  0  0  0  0  0  0  0
    3.8205   -0.8776    0.6009 C   0  0  0  0  0  0  0  0  0  0  0  0
    4.4355   -0.8759   -0.8147 C   0  0  0  0  0  0  0  0  0  0  0  0
    5.8107   -1.1691   -0.7999 O   0  0  0  0  0  0  0  0  0  0  0  0
   -5.7514   -1.0395   -0.4043 H   0  0  0  0  0  0  0  0  0  0  0  0
   -4.4925   -3.1515   -0.1506 H   0  0  0  0  0  0  0  0  0  0  0  0
   -2.0312   -3.0904    0.1310 H   0  0  0  0  0  0  0  0  0  0  0  0
   -4.5317    1.1244   -0.3772 H   0  0  0  0  0  0  0  0  0  0  0  0
   -0.4004    3.6052   -0.0929 H   0  0  0  0  0  0  0  0  0  0  0  0
    2.0722    3.7233    0.1450 H   0  0  0  0  0  0  0  0  0  0  0  0
    3.3667    1.6798    0.4275 H   0  0  0  0  0  0  0  0  0  0  0  0
    1.8513   -1.6354    0.5119 H   0  0  0  0  0  0  0  0  0  0  0  0
    4.0736   -1.8237    1.0823 H   0  0  0  0  0  0  0  0  0  0  0  0
    4.2476   -0.0669    1.1967 H   0  0  0  0  0  0  0  0  0  0  0  0
    4.2436    0.0856   -1.3081 H   0  0  0  0  0  0  0  0  0  0  0  0
    3.9710   -1.6650   -1.4109 H   0  0  0  0  0  0  0  0  0  0  0  0
    6.2871   -0.4729   -0.3260 H   0  0  0  0  0  0  0  0  0  0  0  0
  1  2  4  0  0  0  0
  2  3  4  0  0  0  0
  3  4  4  0  0  0  0
  4  5  4  0  0  0  0
  1  6  4  0  0  0  0
  5  6  4  0  0  0  0
  5  7  1  0  0  0  0
  7  8  2  0  0  0  0
  7  9  1  0  0  0  0
  9 10  4  0  0  0  0
 10 11  4  0  0  0  0
 11 12  2  0  0  0  0
 12 13  4  0  0  0  0
  9 14  4  0  0  0  0
 13 14  4  0  0  0  0
  4 15  1  0  0  0  0
 14 15  1  0  0  0  0
 15 16  2  0  0  0  0
 13 17  4  0  0  0  0
 17 18  1  0  0  0  0
 18 19  1  0  0  0  0
 19 20  1  0  0  0  0
  1 21  1  0  0  0  0
  2 22  1  0  0  0  0
  3 23  1  0  0  0  0
  6 24  1  0  0  0  0
 10 25  1  0  0  0  0
 11 26  1  0  0  0  0
 12 27  1  0  0  0  0
 17 28  1  0  0  0  0
 18 29  1  0  0  0  0
 18 30  1  0  0  0  0
 19 31  1  0  0  0  0
 19 32  1  0  0  0  0
 20 33  1  0  0  0  0
M  END
