20
 xtb: 6.7.1 (edcfbbe)
C           -3.47714292824872       -0.95875275679414        0.34444022279418
C           -2.13157506878508       -0.67598176588551       -0.31345305484934
C           -1.31124744126882        0.34004148195162        0.50190657586835
C           -0.00313287628228        0.60809590132450       -0.17980475692766
O            0.12942360934328        1.31932436697207       -1.16489112822178
O            1.01708019009425       -0.06577121474947        0.38154475394146
C            2.32340582935553        0.07524953323340       -0.26401900269274
C            3.30585262114174       -0.74194140173234        0.53594814273352
H           -4.05479423547268       -1.67840505535813       -0.24380262230323
H           -3.34353685077954       -1.37364526976704        1.34915713857395
H           -4.06950829965656       -0.04183712623722        0.43413165065157
H           -2.28222982008445       -0.28232159721328       -1.32490591088179
H           -1.55761410631717       -1.60507634141183       -0.40976638362236
H           -1.13967943698658       -0.04099220523281        1.51195047581236
H           -1.85886436521203        1.28559554973935        0.56543421148388
H            2.23618750282647       -0.28144462548281       -1.29482587122009
H            2.58798825579022        1.13668269834174       -0.27681526106183
H            3.37632548786409       -0.37630371967079        1.56430529413604
H            3.01944529609633       -1.79744104793998        0.55218123531908
H            4.29417325846250       -0.66163491560078        0.07439707831625
