 xtb: 6.7.1 (edcfbbe)
          04112516053D

 17 16  0     0  0            999 V2000
    1.2395   -1.6953    0.5074 C   0  0  0  0  0  0  0  0  0  0  0  0
    0.8982   -0.9109   -0.6429 O   0  0  0  0  0  0  0  0  0  0  0  0
   -0.0953    0.0222   -0.4325 C   0  0  0  0  0  0  0  0  0  0  0  0
    0.2831    1.0251    0.4657 O   0  0  0  0  0  0  0  0  0  0  0  0
    1.2926    1.8953   -0.0312 C   0  0  0  0  0  0  0  0  0  0  0  0
   -1.2297   -0.5980    0.0546 O   0  0  0  0  0  0  0  0  0  0  0  0
   -2.3931    0.2241    0.0630 C   0  0  0  0  0  0  0  0  0  0  0  0
    0.4169   -2.3649    0.7595 H   0  0  0  0  0  0  0  0  0  0  0  0
    1.4589   -1.0440    1.3552 H   0  0  0  0  0  0  0  0  0  0  0  0
    2.1204   -2.2572    0.2127 H   0  0  0  0  0  0  0  0  0  0  0  0
   -0.2798    0.4702   -1.4341 H   0  0  0  0  0  0  0  0  0  0  0  0
    1.5058    2.5833    0.7813 H   0  0  0  0  0  0  0  0  0  0  0  0
    0.9242    2.4375   -0.9066 H   0  0  0  0  0  0  0  0  0  0  0  0
    2.1878    1.3317   -0.3021 H   0  0  0  0  0  0  0  0  0  0  0  0
   -2.6263    0.5563   -0.9524 H   0  0  0  0  0  0  0  0  0  0  0  0
   -2.2450    1.0879    0.7131 H   0  0  0  0  0  0  0  0  0  0  0  0
   -3.1858   -0.4108    0.4469 H   0  0  0  0  0  0  0  0  0  0  0  0
  1  2  1  0  0  0  0
  2  3  1  0  0  0  0
  3  4  1  0  0  0  0
  4  5  1  0  0  0  0
  3  6  1  0  0  0  0
  6  7  1  0  0  0  0
  1  8  1  0  0  0  0
  1  9  1  0  0  0  0
  1 10  1  0  0  0  0
  3 11  1  0  0  0  0
  5 12  1  0  0  0  0
  5 13  1  0  0  0  0
  5 14  1  0  0  0  0
  7 15  1  0  0  0  0
  7 16  1  0  0  0  0
  7 17  1  0  0  0  0
M  END
