 xtb: 6.7.1 (edcfbbe)
          04112515533D

 20 19  0     0  0            999 V2000
   -2.6433   -1.2274   -0.3411 C   0  0  0  0  0  0  0  0  0  0  0  0
   -2.5738    0.2203    0.1296 C   0  0  0  0  0  0  0  0  0  0  0  0
   -1.2563    0.5150    0.8498 C   0  0  0  0  0  0  0  0  0  0  0  0
   -0.0861    0.4753   -0.0995 C   0  0  0  0  0  0  0  0  0  0  0  0
   -0.0711    0.9632   -1.2111 O   0  0  0  0  0  0  0  0  0  0  0  0
    0.9538   -0.1500    0.4354 O   0  0  0  0  0  0  0  0  0  0  0  0
    2.1703   -0.2315   -0.3271 C   0  0  0  0  0  0  0  0  0  0  0  0
    3.3183   -0.4892    0.6303 C   0  0  0  0  0  0  0  0  0  0  0  0
   -2.5470   -1.9090    0.5008 H   0  0  0  0  0  0  0  0  0  0  0  0
   -3.5913   -1.4198   -0.8361 H   0  0  0  0  0  0  0  0  0  0  0  0
   -1.8409   -1.4342   -1.0470 H   0  0  0  0  0  0  0  0  0  0  0  0
   -3.4019    0.4254    0.8084 H   0  0  0  0  0  0  0  0  0  0  0  0
   -2.6579    0.8884   -0.7296 H   0  0  0  0  0  0  0  0  0  0  0  0
   -1.0743   -0.1968    1.6543 H   0  0  0  0  0  0  0  0  0  0  0  0
   -1.2878    1.5220    1.2713 H   0  0  0  0  0  0  0  0  0  0  0  0
    2.0622   -1.0456   -1.0509 H   0  0  0  0  0  0  0  0  0  0  0  0
    2.2977    0.7059   -0.8784 H   0  0  0  0  0  0  0  0  0  0  0  0
    4.2433   -0.5671    0.0687 H   0  0  0  0  0  0  0  0  0  0  0  0
    3.4000    0.3251    1.3443 H   0  0  0  0  0  0  0  0  0  0  0  0
    3.1477   -1.4144    1.1724 H   0  0  0  0  0  0  0  0  0  0  0  0
  1  2  1  0  0  0  0
  2  3  1  0  0  0  0
  3  4  1  0  0  0  0
  4  5  2  0  0  0  0
  4  6  1  0  0  0  0
  6  7  1  0  0  0  0
  7  8  1  0  0  0  0
  1  9  1  0  0  0  0
  1 10  1  0  0  0  0
  1 11  1  0  0  0  0
  2 12  1  0  0  0  0
  2 13  1  0  0  0  0
  3 14  1  0  0  0  0
  3 15  1  0  0  0  0
  7 16  1  0  0  0  0
  7 17  1  0  0  0  0
  8 18  1  0  0  0  0
  8 19  1  0  0  0  0
  8 20  1  0  0  0  0
M  END
