 xtb: 6.7.1 (edcfbbe)
          04112515553D

 17 16  0     0  0            999 V2000
    0.7978   -2.2985   -0.0969 C   0  0  0  0  0  0  0  0  0  0  0  0
    0.7075   -1.0369    0.5617 O   0  0  0  0  0  0  0  0  0  0  0  0
    0.3212    0.0005   -0.2680 C   0  0  0  0  0  0  0  0  0  0  0  0
    0.5998    1.1572    0.4378 O   0  0  0  0  0  0  0  0  0  0  0  0
    0.5711    2.3395   -0.3591 C   0  0  0  0  0  0  0  0  0  0  0  0
   -1.0123   -0.0873   -0.6643 O   0  0  0  0  0  0  0  0  0  0  0  0
   -1.9558   -0.0718    0.4117 C   0  0  0  0  0  0  0  0  0  0  0  0
    1.5828   -2.2706   -0.8573 H   0  0  0  0  0  0  0  0  0  0  0  0
   -0.1545   -2.5604   -0.5632 H   0  0  0  0  0  0  0  0  0  0  0  0
    1.0495   -3.0095    0.6841 H   0  0  0  0  0  0  0  0  0  0  0  0
    0.8809   -0.0264   -1.2280 H   0  0  0  0  0  0  0  0  0  0  0  0
    1.3607    2.3035   -1.1143 H   0  0  0  0  0  0  0  0  0  0  0  0
    0.7461    3.1551    0.3359 H   0  0  0  0  0  0  0  0  0  0  0  0
   -0.3987    2.4526   -0.8486 H   0  0  0  0  0  0  0  0  0  0  0  0
   -1.8714    0.8579    0.9770 H   0  0  0  0  0  0  0  0  0  0  0  0
   -1.7831   -0.9172    1.0799 H   0  0  0  0  0  0  0  0  0  0  0  0
   -2.9283   -0.1477   -0.0646 H   0  0  0  0  0  0  0  0  0  0  0  0
  1  2  1  0  0  0  0
  2  3  1  0  0  0  0
  3  4  1  0  0  0  0
  4  5  1  0  0  0  0
  3  6  1  0  0  0  0
  6  7  1  0  0  0  0
  1  8  1  0  0  0  0
  1  9  1  0  0  0  0
  1 10  1  0  0  0  0
  3 11  1  0  0  0  0
  5 12  1  0  0  0  0
  5 13  1  0  0  0  0
  5 14  1  0  0  0  0
  7 15  1  0  0  0  0
  7 16  1  0  0  0  0
  7 17  1  0  0  0  0
M  END
