 xtb: 6.7.1 (edcfbbe)
          04112517463D

 20 19  0     0  0            999 V2000
   -3.6817   -0.6739    0.2998 C   0  0  0  0  0  0  0  0  0  0  0  0
   -2.4758    0.1444   -0.1431 C   0  0  0  0  0  0  0  0  0  0  0  0
   -1.1670   -0.5303    0.2577 C   0  0  0  0  0  0  0  0  0  0  0  0
    0.0404    0.2524   -0.1849 C   0  0  0  0  0  0  0  0  0  0  0  0
    0.0186    1.2703   -0.8451 O   0  0  0  0  0  0  0  0  0  0  0  0
    1.1658   -0.3122    0.2378 O   0  0  0  0  0  0  0  0  0  0  0  0
    2.4065    0.3232   -0.1161 C   0  0  0  0  0  0  0  0  0  0  0  0
    3.5390   -0.4778    0.4959 C   0  0  0  0  0  0  0  0  0  0  0  0
   -3.6840   -0.7948    1.3802 H   0  0  0  0  0  0  0  0  0  0  0  0
   -4.6021   -0.1764    0.0072 H   0  0  0  0  0  0  0  0  0  0  0  0
   -3.6625   -1.6596   -0.1580 H   0  0  0  0  0  0  0  0  0  0  0  0
   -2.5148    1.1398    0.3031 H   0  0  0  0  0  0  0  0  0  0  0  0
   -2.4899    0.2769   -1.2264 H   0  0  0  0  0  0  0  0  0  0  0  0
   -1.0953   -1.5254   -0.1865 H   0  0  0  0  0  0  0  0  0  0  0  0
   -1.1071   -0.6550    1.3404 H   0  0  0  0  0  0  0  0  0  0  0  0
    2.4768    0.3588   -1.2083 H   0  0  0  0  0  0  0  0  0  0  0  0
    2.3866    1.3525    0.2570 H   0  0  0  0  0  0  0  0  0  0  0  0
    3.4352   -0.5029    1.5765 H   0  0  0  0  0  0  0  0  0  0  0  0
    3.5199   -1.4959    0.1188 H   0  0  0  0  0  0  0  0  0  0  0  0
    4.4861   -0.0164    0.2367 H   0  0  0  0  0  0  0  0  0  0  0  0
  1  2  1  0  0  0  0
  2  3  1  0  0  0  0
  3  4  1  0  0  0  0
  4  5  2  0  0  0  0
  4  6  1  0  0  0  0
  6  7  1  0  0  0  0
  7  8  1  0  0  0  0
  1  9  1  0  0  0  0
  1 10  1  0  0  0  0
  1 11  1  0  0  0  0
  2 12  1  0  0  0  0
  2 13  1  0  0  0  0
  3 14  1  0  0  0  0
  3 15  1  0  0  0  0
  7 16  1  0  0  0  0
  7 17  1  0  0  0  0
  8 18  1  0  0  0  0
  8 19  1  0  0  0  0
  8 20  1  0  0  0  0
M  END
