 xtb: 6.7.1 (edcfbbe)
          04112515533D

 20 19  0     0  0            999 V2000
   -3.3182   -1.0575    0.2511 C   0  0  0  0  0  0  0  0  0  0  0  0
   -1.8698   -0.8217   -0.1572 C   0  0  0  0  0  0  0  0  0  0  0  0
   -1.3561    0.5257    0.3727 C   0  0  0  0  0  0  0  0  0  0  0  0
    0.0634    0.7229   -0.0854 C   0  0  0  0  0  0  0  0  0  0  0  0
    0.3882    1.2786   -1.1146 O   0  0  0  0  0  0  0  0  0  0  0  0
    0.9273    0.1833    0.7648 O   0  0  0  0  0  0  0  0  0  0  0  0
    2.3255    0.2106    0.4329 C   0  0  0  0  0  0  0  0  0  0  0  0
    2.7074   -0.9876   -0.4228 C   0  0  0  0  0  0  0  0  0  0  0  0
   -3.9593   -0.2773   -0.1507 H   0  0  0  0  0  0  0  0  0  0  0  0
   -3.6620   -2.0160   -0.1278 H   0  0  0  0  0  0  0  0  0  0  0  0
   -3.4126   -1.0591    1.3338 H   0  0  0  0  0  0  0  0  0  0  0  0
   -1.7856   -0.8298   -1.2461 H   0  0  0  0  0  0  0  0  0  0  0  0
   -1.2401   -1.6212    0.2374 H   0  0  0  0  0  0  0  0  0  0  0  0
   -1.3845    0.5275    1.4614 H   0  0  0  0  0  0  0  0  0  0  0  0
   -1.9683    1.3351   -0.0238 H   0  0  0  0  0  0  0  0  0  0  0  0
    2.5403    1.1449   -0.0946 H   0  0  0  0  0  0  0  0  0  0  0  0
    2.8378    0.1914    1.3952 H   0  0  0  0  0  0  0  0  0  0  0  0
    2.4449   -1.9108    0.0867 H   0  0  0  0  0  0  0  0  0  0  0  0
    2.1835   -0.9465   -1.3752 H   0  0  0  0  0  0  0  0  0  0  0  0
    3.7764   -0.9715   -0.6079 H   0  0  0  0  0  0  0  0  0  0  0  0
  1  2  1  0  0  0  0
  2  3  1  0  0  0  0
  3  4  1  0  0  0  0
  4  5  2  0  0  0  0
  4  6  1  0  0  0  0
  6  7  1  0  0  0  0
  7  8  1  0  0  0  0
  1  9  1  0  0  0  0
  1 10  1  0  0  0  0
  1 11  1  0  0  0  0
  2 12  1  0  0  0  0
  2 13  1  0  0  0  0
  3 14  1  0  0  0  0
  3 15  1  0  0  0  0
  7 16  1  0  0  0  0
  7 17  1  0  0  0  0
  8 18  1  0  0  0  0
  8 19  1  0  0  0  0
  8 20  1  0  0  0  0
M  END
