 xtb: 6.7.1 (edcfbbe)
          04112515533D

 20 19  0     0  0            999 V2000
   -2.7385   -1.1758   -0.0695 C   0  0  0  0  0  0  0  0  0  0  0  0
   -2.5243    0.3327   -0.0390 C   0  0  0  0  0  0  0  0  0  0  0  0
   -1.2300    0.7025    0.6878 C   0  0  0  0  0  0  0  0  0  0  0  0
   -0.0141    0.2634   -0.0879 C   0  0  0  0  0  0  0  0  0  0  0  0
    0.1159    0.3532   -1.2907 O   0  0  0  0  0  0  0  0  0  0  0  0
    0.9163   -0.2395    0.7163 O   0  0  0  0  0  0  0  0  0  0  0  0
    2.1630   -0.6652    0.1410 C   0  0  0  0  0  0  0  0  0  0  0  0
    3.1327    0.4985    0.0038 C   0  0  0  0  0  0  0  0  0  0  0  0
   -3.6688   -1.4165   -0.5767 H   0  0  0  0  0  0  0  0  0  0  0  0
   -1.9232   -1.6623   -0.6019 H   0  0  0  0  0  0  0  0  0  0  0  0
   -2.7797   -1.5775    0.9401 H   0  0  0  0  0  0  0  0  0  0  0  0
   -3.3633    0.8120    0.4659 H   0  0  0  0  0  0  0  0  0  0  0  0
   -2.4718    0.7146   -1.0603 H   0  0  0  0  0  0  0  0  0  0  0  0
   -1.1879    0.2548    1.6802 H   0  0  0  0  0  0  0  0  0  0  0  0
   -1.1645    1.7879    0.7903 H   0  0  0  0  0  0  0  0  0  0  0  0
    2.5408   -1.4178    0.8336 H   0  0  0  0  0  0  0  0  0  0  0  0
    1.9606   -1.1145   -0.8362 H   0  0  0  0  0  0  0  0  0  0  0  0
    4.0852    0.1312   -0.3639 H   0  0  0  0  0  0  0  0  0  0  0  0
    2.7405    1.2290   -0.7003 H   0  0  0  0  0  0  0  0  0  0  0  0
    3.2799    0.9784    0.9675 H   0  0  0  0  0  0  0  0  0  0  0  0
  1  2  1  0  0  0  0
  2  3  1  0  0  0  0
  3  4  1  0  0  0  0
  4  5  2  0  0  0  0
  4  6  1  0  0  0  0
  6  7  1  0  0  0  0
  7  8  1  0  0  0  0
  1  9  1  0  0  0  0
  1 10  1  0  0  0  0
  1 11  1  0  0  0  0
  2 12  1  0  0  0  0
  2 13  1  0  0  0  0
  3 14  1  0  0  0  0
  3 15  1  0  0  0  0
  7 16  1  0  0  0  0
  7 17  1  0  0  0  0
  8 18  1  0  0  0  0
  8 19  1  0  0  0  0
  8 20  1  0  0  0  0
M  END
