 xtb: 6.7.1 (edcfbbe)
          04112516443D

 20 19  0     0  0            999 V2000
   -2.5497   -0.5513    1.1291 C   0  0  0  0  0  0  0  0  0  0  0  0
   -2.1260   -0.8213   -0.3096 C   0  0  0  0  0  0  0  0  0  0  0  0
   -1.3915    0.3772   -0.9265 C   0  0  0  0  0  0  0  0  0  0  0  0
   -0.1325    0.6901   -0.1605 C   0  0  0  0  0  0  0  0  0  0  0  0
    0.0349    1.6779    0.5266 O   0  0  0  0  0  0  0  0  0  0  0  0
    0.7882   -0.2496   -0.3188 O   0  0  0  0  0  0  0  0  0  0  0  0
    2.0434   -0.0911    0.3634 C   0  0  0  0  0  0  0  0  0  0  0  0
    3.0811   -0.9538   -0.3291 C   0  0  0  0  0  0  0  0  0  0  0  0
   -3.1840    0.3305    1.1815 H   0  0  0  0  0  0  0  0  0  0  0  0
   -3.1003   -1.3990    1.5282 H   0  0  0  0  0  0  0  0  0  0  0  0
   -1.6809   -0.3760    1.7611 H   0  0  0  0  0  0  0  0  0  0  0  0
   -3.0089   -1.0294   -0.9150 H   0  0  0  0  0  0  0  0  0  0  0  0
   -1.4727   -1.6942   -0.3451 H   0  0  0  0  0  0  0  0  0  0  0  0
   -2.0273    1.2621   -0.9073 H   0  0  0  0  0  0  0  0  0  0  0  0
   -1.1160    0.1408   -1.9542 H   0  0  0  0  0  0  0  0  0  0  0  0
    2.3153    0.9695    0.3461 H   0  0  0  0  0  0  0  0  0  0  0  0
    1.9034   -0.3937    1.4063 H   0  0  0  0  0  0  0  0  0  0  0  0
    2.7681   -1.9935   -0.3168 H   0  0  0  0  0  0  0  0  0  0  0  0
    3.2046   -0.6367   -1.3606 H   0  0  0  0  0  0  0  0  0  0  0  0
    4.0291   -0.8582    0.1900 H   0  0  0  0  0  0  0  0  0  0  0  0
  1  2  1  0  0  0  0
  2  3  1  0  0  0  0
  3  4  1  0  0  0  0
  4  5  2  0  0  0  0
  4  6  1  0  0  0  0
  6  7  1  0  0  0  0
  7  8  1  0  0  0  0
  1  9  1  0  0  0  0
  1 10  1  0  0  0  0
  1 11  1  0  0  0  0
  2 12  1  0  0  0  0
  2 13  1  0  0  0  0
  3 14  1  0  0  0  0
  3 15  1  0  0  0  0
  7 16  1  0  0  0  0
  7 17  1  0  0  0  0
  8 18  1  0  0  0  0
  8 19  1  0  0  0  0
  8 20  1  0  0  0  0
M  END
