13
 xtb: 6.7.1 (edcfbbe)
C           -1.96357335493291        0.97830305055921       -0.37741785051872
C           -1.56728499415838       -0.26869918258339        0.40694236876717
C           -0.33912454064510       -0.95903630930242       -0.14382214343170
N            0.92044764266618       -0.12652183224843       -0.01441103964020
O            0.99008573436323        0.70220458793616        0.88352561514377
O            1.82720457424878       -0.35240592876785       -0.80944227328277
H           -2.14193834196656        0.73614475125067       -1.43029406658055
H           -2.88135346167764        1.41133511558070        0.03039544907802
H           -1.18582288180684        1.74732504130626       -0.33198641549093
H           -2.37013949092241       -1.01310204055791        0.35543718537198
H           -1.42055347497256       -0.03820351328199        1.46643792656542
H           -0.10215061939476       -1.87888942168101        0.40246061844655
H           -0.41833599769085       -1.19387283550230       -1.20716904543610
