 xtb: 6.7.1 (edcfbbe)
          04112512433D

 16 15  0     0  0            999 V2000
    2.5517   -0.3231   -0.0001 C   0  0  0  0  0  0  0  0  0  0  0  0
    1.2829    0.5218   -0.0000 C   0  0  0  0  0  0  0  0  0  0  0  0
    0.0247   -0.3422    0.0001 C   0  0  0  0  0  0  0  0  0  0  0  0
   -1.2557    0.5038   -0.0000 C   0  0  0  0  0  0  0  0  0  0  0  0
   -2.4944   -0.2604    0.0001 N   0  0  0  0  0  0  0  0  0  0  0  0
    2.5860   -0.9590   -0.8819 H   0  0  0  0  0  0  0  0  0  0  0  0
    3.4334    0.3127   -0.0002 H   0  0  0  0  0  0  0  0  0  0  0  0
    2.5861   -0.9589    0.8819 H   0  0  0  0  0  0  0  0  0  0  0  0
    1.2747    1.1668    0.8813 H   0  0  0  0  0  0  0  0  0  0  0  0
    1.2746    1.1667   -0.8815 H   0  0  0  0  0  0  0  0  0  0  0  0
    0.0284   -0.9875   -0.8832 H   0  0  0  0  0  0  0  0  0  0  0  0
    0.0284   -0.9872    0.8835 H   0  0  0  0  0  0  0  0  0  0  0  0
   -1.2666    1.1479   -0.8840 H   0  0  0  0  0  0  0  0  0  0  0  0
   -1.2666    1.1481    0.8837 H   0  0  0  0  0  0  0  0  0  0  0  0
   -2.5206   -0.8624   -0.8165 H   0  0  0  0  0  0  0  0  0  0  0  0
   -2.5206   -0.8622    0.8168 H   0  0  0  0  0  0  0  0  0  0  0  0
  1  2  1  0  0  0  0
  2  3  1  0  0  0  0
  3  4  1  0  0  0  0
  4  5  1  0  0  0  0
  1  6  1  0  0  0  0
  1  7  1  0  0  0  0
  1  8  1  0  0  0  0
  2  9  1  0  0  0  0
  2 10  1  0  0  0  0
  3 11  1  0  0  0  0
  3 12  1  0  0  0  0
  4 13  1  0  0  0  0
  4 14  1  0  0  0  0
  5 15  1  0  0  0  0
  5 16  1  0  0  0  0
M  END
