22
 xtb: 6.7.1 (edcfbbe)
C            2.30652222694352        0.91997564709218       -0.72150940577264
C            1.16895997621753        0.44970205750640        0.17911660063810
C            1.62998698543588       -0.72894238109231        1.04170801201820
N           -0.00456565833912        0.16042074160701       -0.67425927908219
C           -1.17458626261191       -0.41878016399104        0.01960543567260
C           -2.22925306024479       -0.76540853562017       -1.02548857003767
C           -1.73490397273869        0.55030854754093        1.05363134420859
H            2.00979639024091        1.78816193140379       -1.31825268169224
H            3.18142646779803        1.19636151015264       -0.12517976665278
H            2.60735593566839        0.11837231930428       -1.40824700114921
H            0.89640649967501        1.27930744494867        0.84439877922773
H            1.86215964238406       -1.59592611236623        0.40979121389731
H            0.87158439007042       -1.03002306854961        1.77089829157528
H            2.53493670088190       -0.46176471565430        1.59820458088816
H            0.30161904758836       -0.53587158238037       -1.35295464336386
H           -0.90835389996015       -1.35393051995692        0.54223893418692
H           -1.82193289618555       -1.44267349390889       -1.78497122756712
H           -3.08427485675624       -1.26204970734911       -0.55640607349183
H           -2.59074893142339        0.13759802952321       -1.52998580576994
H           -2.63824800423361        0.12925721483220        1.50620268973280
H           -2.00066501664969        1.50567438266626        0.58551906871735
H           -1.02336270207760        0.74952636204805        1.86068475705260
