17
 xtb: 6.7.1 (edcfbbe)
C            1.31445864327825       -1.62035886569862        0.48812142430384
O            0.83007663766413       -0.94685603358204       -0.69351867377205
C           -0.15793153665354        0.01711310665694       -0.45990198494380
O            0.23312511205629        0.99429543445803        0.47808636224388
C            1.31953820510037        1.80680880643215        0.00189549755385
O           -1.30148148183688       -0.61666458857461        0.04481149440958
C           -2.45805656618561        0.23997556335937        0.05784902139113
H            0.53110107827462       -2.23251730837442        0.94525102547124
H            1.70175197704083       -0.90633764051254        1.22116293768004
H            2.12550175774281       -2.26594164537827        0.14849573058227
H           -0.35722120864074        0.48468572180389       -1.43901318848901
H            1.44718699525492        2.61186807940843        0.72735442858483
H            1.08247183523533        2.23475355807824       -0.98043958483534
H            2.24736142081118        1.22752109494162       -0.06741143215382
H           -2.60686515168803        0.70088047641774       -0.92684601865530
H           -2.36732671949397        1.02145853951349        0.81909250303014
H           -3.31143041500693       -0.39806957309953        0.29275339649841
