 xtb: 6.7.1 (edcfbbe)
          04112512293D

 16 15  0     0  0            999 V2000
    1.9761   -0.6545    0.2029 C   0  0  0  0  0  0  0  0  0  0  0  0
    1.1197    0.3058   -0.6160 C   0  0  0  0  0  0  0  0  0  0  0  0
    0.0001    0.9641    0.1937 C   0  0  0  0  0  0  0  0  0  0  0  0
   -1.0930    0.0059    0.6711 C   0  0  0  0  0  0  0  0  0  0  0  0
   -1.9066   -0.4626   -0.4452 N   0  0  0  0  0  0  0  0  0  0  0  0
    2.3903   -0.1464    1.0710 H   0  0  0  0  0  0  0  0  0  0  0  0
    1.3952   -1.5055    0.5496 H   0  0  0  0  0  0  0  0  0  0  0  0
    2.7988   -1.0318   -0.3999 H   0  0  0  0  0  0  0  0  0  0  0  0
    1.7609    1.0975   -1.0097 H   0  0  0  0  0  0  0  0  0  0  0  0
    0.6944   -0.2203   -1.4726 H   0  0  0  0  0  0  0  0  0  0  0  0
    0.4357    1.4502    1.0690 H   0  0  0  0  0  0  0  0  0  0  0  0
   -0.4754    1.7302   -0.4202 H   0  0  0  0  0  0  0  0  0  0  0  0
   -1.7600    0.5498    1.3467 H   0  0  0  0  0  0  0  0  0  0  0  0
   -0.6385   -0.8163    1.2478 H   0  0  0  0  0  0  0  0  0  0  0  0
   -1.3342   -1.0118   -1.0777 H   0  0  0  0  0  0  0  0  0  0  0  0
   -2.6414   -1.0697   -0.1004 H   0  0  0  0  0  0  0  0  0  0  0  0
  1  2  1  0  0  0  0
  2  3  1  0  0  0  0
  3  4  1  0  0  0  0
  4  5  1  0  0  0  0
  1  6  1  0  0  0  0
  1  7  1  0  0  0  0
  1  8  1  0  0  0  0
  2  9  1  0  0  0  0
  2 10  1  0  0  0  0
  3 11  1  0  0  0  0
  3 12  1  0  0  0  0
  4 13  1  0  0  0  0
  4 14  1  0  0  0  0
  5 15  1  0  0  0  0
  5 16  1  0  0  0  0
M  END
