 xtb: 6.7.1 (edcfbbe)
          04112512293D

 16 15  0     0  0            999 V2000
    2.1442   -0.2652    0.5808 C   0  0  0  0  0  0  0  0  0  0  0  0
    1.3687    0.4575   -0.5158 C   0  0  0  0  0  0  0  0  0  0  0  0
   -0.0413   -0.0944   -0.7231 C   0  0  0  0  0  0  0  0  0  0  0  0
   -0.9752    0.1637    0.4583 C   0  0  0  0  0  0  0  0  0  0  0  0
   -2.3450   -0.1807    0.0919 N   0  0  0  0  0  0  0  0  0  0  0  0
    2.1830   -1.3332    0.3777 H   0  0  0  0  0  0  0  0  0  0  0  0
    3.1629    0.1114    0.6314 H   0  0  0  0  0  0  0  0  0  0  0  0
    1.6793   -0.1149    1.5516 H   0  0  0  0  0  0  0  0  0  0  0  0
    1.3063    1.5210   -0.2759 H   0  0  0  0  0  0  0  0  0  0  0  0
    1.9168    0.3616   -1.4555 H   0  0  0  0  0  0  0  0  0  0  0  0
   -0.4854    0.3732   -1.6033 H   0  0  0  0  0  0  0  0  0  0  0  0
    0.0131   -1.1699   -0.9092 H   0  0  0  0  0  0  0  0  0  0  0  0
   -0.9615    1.2295    0.7055 H   0  0  0  0  0  0  0  0  0  0  0  0
   -0.6203   -0.3927    1.3414 H   0  0  0  0  0  0  0  0  0  0  0  0
   -2.9612   -0.0256    0.8818 H   0  0  0  0  0  0  0  0  0  0  0  0
   -2.3936   -1.1668   -0.1430 H   0  0  0  0  0  0  0  0  0  0  0  0
  1  2  1  0  0  0  0
  2  3  1  0  0  0  0
  3  4  1  0  0  0  0
  4  5  1  0  0  0  0
  1  6  1  0  0  0  0
  1  7  1  0  0  0  0
  1  8  1  0  0  0  0
  2  9  1  0  0  0  0
  2 10  1  0  0  0  0
  3 11  1  0  0  0  0
  3 12  1  0  0  0  0
  4 13  1  0  0  0  0
  4 14  1  0  0  0  0
  5 15  1  0  0  0  0
  5 16  1  0  0  0  0
M  END
