 xtb: 6.7.1 (edcfbbe)
          04112512243D

 22 21  0     0  0            999 V2000
    1.7297    1.1526    0.6400 C   0  0  0  0  0  0  0  0  0  0  0  0
    1.3958   -0.2428    0.0949 C   0  0  0  0  0  0  0  0  0  0  0  0
    1.6717   -0.3128   -1.4100 C   0  0  0  0  0  0  0  0  0  0  0  0
    0.0572   -0.7359    0.4192 N   0  0  0  0  0  0  0  0  0  0  0  0
   -1.0966    0.1575    0.3494 C   0  0  0  0  0  0  0  0  0  0  0  0
   -2.2707   -0.5601    1.0173 C   0  0  0  0  0  0  0  0  0  0  0  0
   -1.4614    0.4945   -1.0962 C   0  0  0  0  0  0  0  0  0  0  0  0
    1.5241    1.2087    1.7077 H   0  0  0  0  0  0  0  0  0  0  0  0
    2.7841    1.3613    0.4806 H   0  0  0  0  0  0  0  0  0  0  0  0
    1.1491    1.9183    0.1309 H   0  0  0  0  0  0  0  0  0  0  0  0
    2.0763   -0.9589    0.5733 H   0  0  0  0  0  0  0  0  0  0  0  0
    1.2011    0.5065   -1.9433 H   0  0  0  0  0  0  0  0  0  0  0  0
    1.2946   -1.2506   -1.8063 H   0  0  0  0  0  0  0  0  0  0  0  0
    2.7434   -0.2622   -1.5855 H   0  0  0  0  0  0  0  0  0  0  0  0
    0.0799   -1.1264    1.3543 H   0  0  0  0  0  0  0  0  0  0  0  0
   -0.9202    1.1031    0.8960 H   0  0  0  0  0  0  0  0  0  0  0  0
   -2.0497   -0.7752    2.0609 H   0  0  0  0  0  0  0  0  0  0  0  0
   -3.1630    0.0586    0.9768 H   0  0  0  0  0  0  0  0  0  0  0  0
   -2.4663   -1.4973    0.5035 H   0  0  0  0  0  0  0  0  0  0  0  0
   -1.4596   -0.4116   -1.6946 H   0  0  0  0  0  0  0  0  0  0  0  0
   -0.7612    1.2031   -1.5274 H   0  0  0  0  0  0  0  0  0  0  0  0
   -2.4529    0.9391   -1.1295 H   0  0  0  0  0  0  0  0  0  0  0  0
  1  2  1  0  0  0  0
  2  3  1  0  0  0  0
  2  4  1  0  0  0  0
  4  5  1  0  0  0  0
  5  6  1  0  0  0  0
  5  7  1  0  0  0  0
  1  8  1  0  0  0  0
  1  9  1  0  0  0  0
  1 10  1  0  0  0  0
  2 11  1  0  0  0  0
  3 12  1  0  0  0  0
  3 13  1  0  0  0  0
  3 14  1  0  0  0  0
  4 15  1  0  0  0  0
  5 16  1  0  0  0  0
  6 17  1  0  0  0  0
  6 18  1  0  0  0  0
  6 19  1  0  0  0  0
  7 20  1  0  0  0  0
  7 21  1  0  0  0  0
  7 22  1  0  0  0  0
M  END
