 xtb: 6.7.1 (edcfbbe)
          04112515593D

 17 16  0     0  0            999 V2000
    2.9955   -0.7512   -0.1463 C   0  0  0  0  0  0  0  0  0  0  0  0
    1.5452   -0.4125    0.1787 C   0  0  0  0  0  0  0  0  0  0  0  0
    1.1941    1.0077   -0.2599 C   0  0  0  0  0  0  0  0  0  0  0  0
   -0.2000    1.4703    0.1677 C   0  0  0  0  0  0  0  0  0  0  0  0
   -1.3465    0.7510   -0.5264 C   0  0  0  0  0  0  0  0  0  0  0  0
   -1.7479   -0.8230    0.2534 Cl  0  0  0  0  0  0  0  0  0  0  0  0
    3.2289   -1.7669    0.1636 H   0  0  0  0  0  0  0  0  0  0  0  0
    3.6711   -0.0711    0.3677 H   0  0  0  0  0  0  0  0  0  0  0  0
    3.1749   -0.6689   -1.2159 H   0  0  0  0  0  0  0  0  0  0  0  0
    0.8911   -1.1288   -0.3200 H   0  0  0  0  0  0  0  0  0  0  0  0
    1.3818   -0.5096    1.2545 H   0  0  0  0  0  0  0  0  0  0  0  0
    1.2791    1.0795   -1.3464 H   0  0  0  0  0  0  0  0  0  0  0  0
    1.9247    1.6940    0.1740 H   0  0  0  0  0  0  0  0  0  0  0  0
   -0.2973    2.5300   -0.0777 H   0  0  0  0  0  0  0  0  0  0  0  0
   -0.3076    1.3680    1.2488 H   0  0  0  0  0  0  0  0  0  0  0  0
   -2.2644    1.3331   -0.4720 H   0  0  0  0  0  0  0  0  0  0  0  0
   -1.1088    0.5235   -1.5640 H   0  0  0  0  0  0  0  0  0  0  0  0
  1  2  1  0  0  0  0
  2  3  1  0  0  0  0
  3  4  1  0  0  0  0
  4  5  1  0  0  0  0
  5  6  1  0  0  0  0
  1  7  1  0  0  0  0
  1  8  1  0  0  0  0
  1  9  1  0  0  0  0
  2 10  1  0  0  0  0
  2 11  1  0  0  0  0
  3 12  1  0  0  0  0
  3 13  1  0  0  0  0
  4 14  1  0  0  0  0
  4 15  1  0  0  0  0
  5 16  1  0  0  0  0
  5 17  1  0  0  0  0
M  END
