 xtb: 6.7.1 (edcfbbe)
          04112515533D

 20 19  0     0  0            999 V2000
   -2.2356   -1.5734    0.5068 C   0  0  0  0  0  0  0  0  0  0  0  0
   -2.3434   -0.2343   -0.2129 C   0  0  0  0  0  0  0  0  0  0  0  0
   -1.4248    0.8434    0.3784 C   0  0  0  0  0  0  0  0  0  0  0  0
   -0.0007    0.7875   -0.1140 C   0  0  0  0  0  0  0  0  0  0  0  0
    0.6282    1.7709   -0.4539 O   0  0  0  0  0  0  0  0  0  0  0  0
    0.4993   -0.4389   -0.1379 O   0  0  0  0  0  0  0  0  0  0  0  0
    1.8574   -0.6153   -0.5721 C   0  0  0  0  0  0  0  0  0  0  0  0
    2.8267   -0.4653    0.5904 C   0  0  0  0  0  0  0  0  0  0  0  0
   -2.9064   -2.2964    0.0501 H   0  0  0  0  0  0  0  0  0  0  0  0
   -1.2219   -1.9576    0.4517 H   0  0  0  0  0  0  0  0  0  0  0  0
   -2.5095   -1.4637    1.5533 H   0  0  0  0  0  0  0  0  0  0  0  0
   -3.3711    0.1244   -0.1396 H   0  0  0  0  0  0  0  0  0  0  0  0
   -2.1125   -0.3649   -1.2716 H   0  0  0  0  0  0  0  0  0  0  0  0
   -1.3990    0.7413    1.4657 H   0  0  0  0  0  0  0  0  0  0  0  0
   -1.7951    1.8412    0.1398 H   0  0  0  0  0  0  0  0  0  0  0  0
    1.8872   -1.6240   -0.9855 H   0  0  0  0  0  0  0  0  0  0  0  0
    2.0741    0.1215   -1.3515 H   0  0  0  0  0  0  0  0  0  0  0  0
    3.8353   -0.6699    0.2464 H   0  0  0  0  0  0  0  0  0  0  0  0
    2.7857    0.5494    0.9801 H   0  0  0  0  0  0  0  0  0  0  0  0
    2.5697   -1.1609    1.3846 H   0  0  0  0  0  0  0  0  0  0  0  0
  1  2  1  0  0  0  0
  2  3  1  0  0  0  0
  3  4  1  0  0  0  0
  4  5  2  0  0  0  0
  4  6  1  0  0  0  0
  6  7  1  0  0  0  0
  7  8  1  0  0  0  0
  1  9  1  0  0  0  0
  1 10  1  0  0  0  0
  1 11  1  0  0  0  0
  2 12  1  0  0  0  0
  2 13  1  0  0  0  0
  3 14  1  0  0  0  0
  3 15  1  0  0  0  0
  7 16  1  0  0  0  0
  7 17  1  0  0  0  0
  8 18  1  0  0  0  0
  8 19  1  0  0  0  0
  8 20  1  0  0  0  0
M  END
