 xtb: 6.7.1 (edcfbbe)
          04112512313D

 22 21  0     0  0            999 V2000
    2.3175    1.1170   -0.1930 C   0  0  0  0  0  0  0  0  0  0  0  0
    1.2585    0.1510    0.3427 C   0  0  0  0  0  0  0  0  0  0  0  0
    1.7147   -1.2981    0.1099 C   0  0  0  0  0  0  0  0  0  0  0  0
   -0.0118    0.5037   -0.2630 N   0  0  0  0  0  0  0  0  0  0  0  0
   -1.2448   -0.0132    0.3069 C   0  0  0  0  0  0  0  0  0  0  0  0
   -1.6854   -1.3727   -0.2533 C   0  0  0  0  0  0  0  0  0  0  0  0
   -2.3511    1.0179    0.0589 C   0  0  0  0  0  0  0  0  0  0  0  0
    2.4411    0.9794   -1.2646 H   0  0  0  0  0  0  0  0  0  0  0  0
    2.0116    2.1424   -0.0090 H   0  0  0  0  0  0  0  0  0  0  0  0
    3.2726    0.9396    0.2934 H   0  0  0  0  0  0  0  0  0  0  0  0
    1.1489    0.3150    1.4222 H   0  0  0  0  0  0  0  0  0  0  0  0
    2.7310   -1.4302    0.4721 H   0  0  0  0  0  0  0  0  0  0  0  0
    1.6931   -1.5323   -0.9530 H   0  0  0  0  0  0  0  0  0  0  0  0
    1.0753   -2.0010    0.6377 H   0  0  0  0  0  0  0  0  0  0  0  0
    0.0135    0.3353   -1.2627 H   0  0  0  0  0  0  0  0  0  0  0  0
   -1.0883   -0.1046    1.3885 H   0  0  0  0  0  0  0  0  0  0  0  0
   -1.8108   -1.3057   -1.3325 H   0  0  0  0  0  0  0  0  0  0  0  0
   -0.9573   -2.1494   -0.0383 H   0  0  0  0  0  0  0  0  0  0  0  0
   -2.6356   -1.6653    0.1860 H   0  0  0  0  0  0  0  0  0  0  0  0
   -2.0642    1.9793    0.4737 H   0  0  0  0  0  0  0  0  0  0  0  0
   -3.2806    0.6956    0.5201 H   0  0  0  0  0  0  0  0  0  0  0  0
   -2.5135    1.1380   -1.0092 H   0  0  0  0  0  0  0  0  0  0  0  0
  1  2  1  0  0  0  0
  2  3  1  0  0  0  0
  2  4  1  0  0  0  0
  4  5  1  0  0  0  0
  5  6  1  0  0  0  0
  5  7  1  0  0  0  0
  1  8  1  0  0  0  0
  1  9  1  0  0  0  0
  1 10  1  0  0  0  0
  2 11  1  0  0  0  0
  3 12  1  0  0  0  0
  3 13  1  0  0  0  0
  3 14  1  0  0  0  0
  4 15  1  0  0  0  0
  5 16  1  0  0  0  0
  6 17  1  0  0  0  0
  6 18  1  0  0  0  0
  6 19  1  0  0  0  0
  7 20  1  0  0  0  0
  7 21  1  0  0  0  0
  7 22  1  0  0  0  0
M  END
