33
 xtb: 6.7.1 (edcfbbe)
C           -4.54164233363756       -1.14539961131020       -0.38820025680635
C           -3.74119081726977       -2.28667627891359       -0.45565485175730
C           -2.36068723067988       -2.18121895311015       -0.34996237082962
C           -1.76042726694687       -0.93209579683577       -0.17296043741854
C           -2.56810821120080        0.21526578889370       -0.10370076161536
C           -3.95679580106197        0.10020681754653       -0.21359206241072
C           -1.95756977207562        1.54307723916478        0.08590317879472
O           -2.65652903933027        2.56039072082004        0.13720553566049
C           -0.48157676647075        1.61937971852511        0.21696586607191
C            0.07995816157947        2.87172875472420        0.40896358307720
C            1.46643145161998        2.99796715589763        0.53680704633388
C            2.28649775358283        1.89542664211607        0.47550717030636
C            1.75129218076972        0.59439189171859        0.28029388766981
C            0.32746707107683        0.45275291904145        0.14610824743796
C           -0.28261728912429       -0.84646774075884       -0.06213492386546
O            0.38639577444423       -1.89996184509722       -0.14922652125703
N            2.57425743313351       -0.46990653881377        0.23208233687420
C            4.02547610753033       -0.40210609299354        0.30060812957095
C            4.61742671699169       -1.79288241850802        0.17663338115046
O            4.28501196030301       -2.42632095054561       -1.06898333470527
H           -5.61989712196547       -1.23121811075262       -0.47168091184478
H           -4.19790608639270       -3.26163320287787       -0.59090078963396
H           -1.73704186813305       -3.06614360237762       -0.40246120642559
H           -4.56698553190671        0.99488390027806       -0.15994979732595
H           -0.56060937004085        3.74363954662687        0.45783257637947
H            1.90535290464931        3.97914613642035        0.68681614051979
H            3.35749288903372        2.01907835270100        0.57857207016793
H            2.13059545908450       -1.36317223476808        0.04271083479001
H            4.35241498410695        0.02803434181353        1.25728681386230
H            4.42253443420065        0.23726365319275       -0.50112694617359
H            4.22448114168337       -2.44727201166200        0.96101709176743
H            5.70525858213248       -1.71995687529993        0.30011645646861
H            4.67391647455432       -1.89491524844077       -1.77636062427287
