 xtb: 6.7.1 (edcfbbe)
          04112517463D

 20 19  0     0  0            999 V2000
   -2.4167   -0.8705    0.9988 C   0  0  0  0  0  0  0  0  0  0  0  0
   -2.0501   -0.7560   -0.4759 C   0  0  0  0  0  0  0  0  0  0  0  0
   -1.4287    0.6075   -0.8011 C   0  0  0  0  0  0  0  0  0  0  0  0
   -0.1178    0.8024   -0.0838 C   0  0  0  0  0  0  0  0  0  0  0  0
    0.1228    1.7070    0.6910 O   0  0  0  0  0  0  0  0  0  0  0  0
    0.7663   -0.1326   -0.3985 O   0  0  0  0  0  0  0  0  0  0  0  0
    2.0606   -0.0642    0.2212 C   0  0  0  0  0  0  0  0  0  0  0  0
    2.8836   -1.2394   -0.2695 C   0  0  0  0  0  0  0  0  0  0  0  0
   -3.1383   -0.1046    1.2733 H   0  0  0  0  0  0  0  0  0  0  0  0
   -2.8494   -1.8450    1.2086 H   0  0  0  0  0  0  0  0  0  0  0  0
   -1.5355   -0.7420    1.6250 H   0  0  0  0  0  0  0  0  0  0  0  0
   -2.9463   -0.8824   -1.0840 H   0  0  0  0  0  0  0  0  0  0  0  0
   -1.3408   -1.5402   -0.7432 H   0  0  0  0  0  0  0  0  0  0  0  0
   -2.0971    1.4168   -0.5073 H   0  0  0  0  0  0  0  0  0  0  0  0
   -1.2328    0.6703   -1.8723 H   0  0  0  0  0  0  0  0  0  0  0  0
    2.5201    0.8937   -0.0444 H   0  0  0  0  0  0  0  0  0  0  0  0
    1.9267   -0.0856    1.3079 H   0  0  0  0  0  0  0  0  0  0  0  0
    2.4022   -2.1729    0.0061 H   0  0  0  0  0  0  0  0  0  0  0  0
    2.9792   -1.1999   -1.3504 H   0  0  0  0  0  0  0  0  0  0  0  0
    3.8702   -1.1989    0.1799 H   0  0  0  0  0  0  0  0  0  0  0  0
  1  2  1  0  0  0  0
  2  3  1  0  0  0  0
  3  4  1  0  0  0  0
  4  5  2  0  0  0  0
  4  6  1  0  0  0  0
  6  7  1  0  0  0  0
  7  8  1  0  0  0  0
  1  9  1  0  0  0  0
  1 10  1  0  0  0  0
  1 11  1  0  0  0  0
  2 12  1  0  0  0  0
  2 13  1  0  0  0  0
  3 14  1  0  0  0  0
  3 15  1  0  0  0  0
  7 16  1  0  0  0  0
  7 17  1  0  0  0  0
  8 18  1  0  0  0  0
  8 19  1  0  0  0  0
  8 20  1  0  0  0  0
M  END
