 xtb: 6.7.1 (edcfbbe)
          04112516443D

 20 19  0     0  0            999 V2000
   -3.5378   -0.6479    0.4542 C   0  0  0  0  0  0  0  0  0  0  0  0
   -2.1809    0.0380    0.5459 C   0  0  0  0  0  0  0  0  0  0  0  0
   -1.2164   -0.4946   -0.5247 C   0  0  0  0  0  0  0  0  0  0  0  0
    0.0978    0.2284   -0.4065 C   0  0  0  0  0  0  0  0  0  0  0  0
    0.3787    1.2552   -0.9899 O   0  0  0  0  0  0  0  0  0  0  0  0
    0.9034   -0.3690    0.4620 O   0  0  0  0  0  0  0  0  0  0  0  0
    2.1875    0.2203    0.7267 C   0  0  0  0  0  0  0  0  0  0  0  0
    3.2285   -0.2634   -0.2711 C   0  0  0  0  0  0  0  0  0  0  0  0
   -3.4326   -1.7199    0.5992 H   0  0  0  0  0  0  0  0  0  0  0  0
   -4.2054   -0.2591    1.2182 H   0  0  0  0  0  0  0  0  0  0  0  0
   -3.9882   -0.4731   -0.5194 H   0  0  0  0  0  0  0  0  0  0  0  0
   -1.7458   -0.1336    1.5322 H   0  0  0  0  0  0  0  0  0  0  0  0
   -2.2998    1.1152    0.4111 H   0  0  0  0  0  0  0  0  0  0  0  0
   -1.6298   -0.3113   -1.5160 H   0  0  0  0  0  0  0  0  0  0  0  0
   -1.0528   -1.5607   -0.3739 H   0  0  0  0  0  0  0  0  0  0  0  0
    2.0876    1.3091    0.6817 H   0  0  0  0  0  0  0  0  0  0  0  0
    2.4320   -0.0973    1.7408 H   0  0  0  0  0  0  0  0  0  0  0  0
    2.9653    0.0679   -1.2732 H   0  0  0  0  0  0  0  0  0  0  0  0
    4.1977    0.1473   -0.0075 H   0  0  0  0  0  0  0  0  0  0  0  0
    3.2824   -1.3486   -0.2594 H   0  0  0  0  0  0  0  0  0  0  0  0
  1  2  1  0  0  0  0
  2  3  1  0  0  0  0
  3  4  1  0  0  0  0
  4  5  2  0  0  0  0
  4  6  1  0  0  0  0
  6  7  1  0  0  0  0
  7  8  1  0  0  0  0
  1  9  1  0  0  0  0
  1 10  1  0  0  0  0
  1 11  1  0  0  0  0
  2 12  1  0  0  0  0
  2 13  1  0  0  0  0
  3 14  1  0  0  0  0
  3 15  1  0  0  0  0
  7 16  1  0  0  0  0
  7 17  1  0  0  0  0
  8 18  1  0  0  0  0
  8 19  1  0  0  0  0
  8 20  1  0  0  0  0
M  END
