 xtb: 6.7.1 (edcfbbe)
          04112516163D

 31 32  0     0  0            999 V2000
   -3.4935    1.6992   -0.9453 C   0  0  0  0  0  0  0  0  0  0  0  0
   -3.1533    0.2372   -0.6685 C   0  0  0  0  0  0  0  0  0  0  0  0
   -3.5944   -0.4026   -1.4385 H   0  0  0  0  0  0  0  0  0  0  0  0
   -1.6668   -0.0602   -0.5973 C   0  0  0  0  0  0  0  0  0  0  0  0
   -1.2279   -1.3544   -0.9481 C   0  0  0  0  0  0  0  0  0  0  0  0
    0.0920   -1.6936   -0.8814 C   0  0  0  0  0  0  0  0  0  0  0  0
    1.0586   -0.7545   -0.4583 C   0  0  0  0  0  0  0  0  0  0  0  0
    2.4251   -1.0660   -0.3838 C   0  0  0  0  0  0  0  0  0  0  0  0
    3.3458   -0.1299    0.0351 C   0  0  0  0  0  0  0  0  0  0  0  0
    2.9116    1.1613    0.3957 C   0  0  0  0  0  0  0  0  0  0  0  0
    1.5839    1.4824    0.3306 C   0  0  0  0  0  0  0  0  0  0  0  0
    0.6215    0.5461   -0.0942 C   0  0  0  0  0  0  0  0  0  0  0  0
   -0.7509    0.8618   -0.1647 C   0  0  0  0  0  0  0  0  0  0  0  0
    4.6485   -0.5378    0.0699 O   0  0  0  0  0  0  0  0  0  0  0  0
    5.6430    0.3772    0.4904 C   0  0  0  0  0  0  0  0  0  0  0  0
   -3.6922   -0.2393    0.6654 C   0  0  0  0  0  0  0  0  0  0  0  0
   -4.1698   -1.3411    0.8450 O   0  0  0  0  0  0  0  0  0  0  0  0
   -3.5431    0.6393    1.6390 O   0  0  0  0  0  0  0  0  0  0  0  0
   -3.2300    2.3273   -0.1003 H   0  0  0  0  0  0  0  0  0  0  0  0
   -2.9553    2.0375   -1.8261 H   0  0  0  0  0  0  0  0  0  0  0  0
   -4.5610    1.7989   -1.1257 H   0  0  0  0  0  0  0  0  0  0  0  0
   -1.9608   -2.0822   -1.2657 H   0  0  0  0  0  0  0  0  0  0  0  0
    0.4167   -2.6872   -1.1523 H   0  0  0  0  0  0  0  0  0  0  0  0
    2.7706   -2.0511   -0.6569 H   0  0  0  0  0  0  0  0  0  0  0  0
    3.6220    1.9026    0.7240 H   0  0  0  0  0  0  0  0  0  0  0  0
    1.2580    2.4737    0.6080 H   0  0  0  0  0  0  0  0  0  0  0  0
   -1.0592    1.8524    0.1297 H   0  0  0  0  0  0  0  0  0  0  0  0
    5.6897    1.2445   -0.1732 H   0  0  0  0  0  0  0  0  0  0  0  0
    6.5785   -0.1750    0.4342 H   0  0  0  0  0  0  0  0  0  0  0  0
    5.4721    0.7033    1.5196 H   0  0  0  0  0  0  0  0  0  0  0  0
   -3.8497    0.3005    2.5021 H   0  0  0  0  0  0  0  0  0  0  0  0
  1  2  1  0  0  0  0
  2  3  1  0  0  0  0
  2  4  1  0  0  0  0
  4  5  4  0  0  0  0
  5  6  2  0  0  0  0
  6  7  4  0  0  0  0
  7  8  4  0  0  0  0
  8  9  4  0  0  0  0
  9 10  4  0  0  0  0
 10 11  2  0  0  0  0
  7 12  4  0  0  0  0
 11 12  4  0  0  0  0
  4 13  2  0  0  0  0
 12 13  4  0  0  0  0
  9 14  1  0  0  0  0
 14 15  1  0  0  0  0
  2 16  1  0  0  0  0
 16 17  2  0  0  0  0
 16 18  1  0  0  0  0
  1 19  1  0  0  0  0
  1 20  1  0  0  0  0
  1 21  1  0  0  0  0
  5 22  1  0  0  0  0
  6 23  1  0  0  0  0
  8 24  1  0  0  0  0
 10 25  1  0  0  0  0
 11 26  1  0  0  0  0
 13 27  1  0  0  0  0
 15 28  1  0  0  0  0
 15 29  1  0  0  0  0
 15 30  1  0  0  0  0
 18 31  1  0  0  0  0
M  END
