17
 xtb: 6.7.1 (edcfbbe)
C            1.01072641861535       -1.59920232428105        0.30658365185785
O            0.51173914269801       -0.73460748930655       -0.73931577053613
C           -0.22589656282021        0.37793179860625       -0.29291910321350
O            0.49658881450021        1.20917350493955        0.57694633811121
C            1.66225764640737        1.77375416631662       -0.04706585504419
O           -1.35239760764838        0.02712441669395        0.46707319080053
C           -2.29671906160444       -0.75594932050904       -0.28247145753283
H            0.62677113325045       -2.60894696208150        0.13404110445605
H            0.69827490929396       -1.26092643047565        1.29710540166797
H            2.10376874157083       -1.61326948623718        0.25888110799151
H           -0.51040154714801        0.90774020217490       -1.21691814741155
H            2.40738869869087        1.00212661196090       -0.26803956640506
H            2.07823982574007        2.48504263733260        0.66790183806608
H            1.39271390250845        2.29970142261799       -0.97126592535368
H           -2.58031411988603       -0.24114963596497       -1.20876746735546
H           -3.17522292658453       -0.86851974726462        0.35445329269599
H           -1.89103456110948       -1.74475618956711       -0.52155502539456
