20
 xtb: 6.7.1 (edcfbbe)
C           -2.56146886096510       -1.37586179851816       -0.15044759032597
C           -2.58660857031300        0.13245103510477        0.07790321467959
C           -1.29508421780582        0.64276364050634        0.72067008967919
C           -0.10414291402881        0.46861357783063       -0.18093458124035
O           -0.10338464371120        0.70130894703696       -1.37985698692690
O            0.98533563603347        0.04432339224009        0.48402886824537
C            2.21085037080496       -0.10724648527484       -0.30383679376906
C            3.28294577570764       -0.60059193954421        0.63271532990660
H           -3.49797930475496       -1.72227646674280       -0.59825147737418
H           -1.74559166679313       -1.66325568601039       -0.82387281532314
H           -2.42090041006000       -1.91189300517895        0.79449998842346
H           -3.42079099688984        0.39615880888413        0.73656663816996
H           -2.75147939091927        0.65644383663944       -0.86986648675277
H           -1.10725409520752        0.14634126967918        1.67668512117131
H           -1.37014748006167        1.72017807151603        0.91951561010822
H            2.01289098161618       -0.81773574920846       -1.11164846523685
H            2.46056671307525        0.86482666658569       -0.73940614002000
H            3.46217998180628        0.11586410139466        1.43935254850708
H            3.01103250046305       -1.56636535679441        1.06800675689535
H            4.21427180957404       -0.72687635171189        0.07278644809930
