 xtb: 6.7.1 (edcfbbe)
          04112515543D

 31 32  0     0  0            999 V2000
   -3.6735    0.1713    1.8438 C   0  0  0  0  0  0  0  0  0  0  0  0
   -3.0526    0.6222    0.5213 C   0  0  0  0  0  0  0  0  0  0  0  0
   -3.0896    1.7125    0.4414 H   0  0  0  0  0  0  0  0  0  0  0  0
   -1.6083    0.1803    0.3926 C   0  0  0  0  0  0  0  0  0  0  0  0
   -1.2820   -1.1910    0.4333 C   0  0  0  0  0  0  0  0  0  0  0  0
    0.0134   -1.6068    0.3269 C   0  0  0  0  0  0  0  0  0  0  0  0
    1.0639   -0.6757    0.1718 C   0  0  0  0  0  0  0  0  0  0  0  0
    2.4062   -1.0707    0.0600 C   0  0  0  0  0  0  0  0  0  0  0  0
    3.4106   -0.1400   -0.0941 C   0  0  0  0  0  0  0  0  0  0  0  0
    3.0890    1.2312   -0.1409 C   0  0  0  0  0  0  0  0  0  0  0  0
    1.7869    1.6349   -0.0334 C   0  0  0  0  0  0  0  0  0  0  0  0
    0.7406    0.7059    0.1245 C   0  0  0  0  0  0  0  0  0  0  0  0
   -0.6078    1.1022    0.2342 C   0  0  0  0  0  0  0  0  0  0  0  0
    4.6802   -0.6329   -0.1930 O   0  0  0  0  0  0  0  0  0  0  0  0
    5.7576    0.2712   -0.3492 C   0  0  0  0  0  0  0  0  0  0  0  0
   -3.7836    0.0717   -0.6840 C   0  0  0  0  0  0  0  0  0  0  0  0
   -3.9245    0.6895   -1.7202 O   0  0  0  0  0  0  0  0  0  0  0  0
   -4.2269   -1.1615   -0.5283 O   0  0  0  0  0  0  0  0  0  0  0  0
   -3.6847   -0.9115    1.9171 H   0  0  0  0  0  0  0  0  0  0  0  0
   -3.0922    0.5737    2.6688 H   0  0  0  0  0  0  0  0  0  0  0  0
   -4.6946    0.5361    1.9209 H   0  0  0  0  0  0  0  0  0  0  0  0
   -2.0735   -1.9163    0.5427 H   0  0  0  0  0  0  0  0  0  0  0  0
    0.2548   -2.6588    0.3577 H   0  0  0  0  0  0  0  0  0  0  0  0
    2.6667   -2.1173    0.0939 H   0  0  0  0  0  0  0  0  0  0  0  0
    3.8654    1.9691   -0.2618 H   0  0  0  0  0  0  0  0  0  0  0  0
    1.5463    2.6871   -0.0706 H   0  0  0  0  0  0  0  0  0  0  0  0
   -0.8392    2.1570    0.1923 H   0  0  0  0  0  0  0  0  0  0  0  0
    5.6610    0.8476   -1.2730 H   0  0  0  0  0  0  0  0  0  0  0  0
    6.6466   -0.3532   -0.4010 H   0  0  0  0  0  0  0  0  0  0  0  0
    5.8347    0.9476    0.5060 H   0  0  0  0  0  0  0  0  0  0  0  0
   -4.6690   -1.5060   -1.3283 H   0  0  0  0  0  0  0  0  0  0  0  0
  1  2  1  0  0  0  0
  2  3  1  0  0  0  0
  2  4  1  0  0  0  0
  4  5  4  0  0  0  0
  5  6  2  0  0  0  0
  6  7  4  0  0  0  0
  7  8  4  0  0  0  0
  8  9  4  0  0  0  0
  9 10  4  0  0  0  0
 10 11  2  0  0  0  0
  7 12  4  0  0  0  0
 11 12  4  0  0  0  0
  4 13  2  0  0  0  0
 12 13  4  0  0  0  0
  9 14  1  0  0  0  0
 14 15  1  0  0  0  0
  2 16  1  0  0  0  0
 16 17  2  0  0  0  0
 16 18  1  0  0  0  0
  1 19  1  0  0  0  0
  1 20  1  0  0  0  0
  1 21  1  0  0  0  0
  5 22  1  0  0  0  0
  6 23  1  0  0  0  0
  8 24  1  0  0  0  0
 10 25  1  0  0  0  0
 11 26  1  0  0  0  0
 13 27  1  0  0  0  0
 15 28  1  0  0  0  0
 15 29  1  0  0  0  0
 15 30  1  0  0  0  0
 18 31  1  0  0  0  0
M  END
