 xtb: 6.7.1 (edcfbbe)
          04112515533D

 20 19  0     0  0            999 V2000
   -2.4785   -0.9755    0.9440 C   0  0  0  0  0  0  0  0  0  0  0  0
   -2.5539    0.0796   -0.1529 C   0  0  0  0  0  0  0  0  0  0  0  0
   -1.2893    0.0847   -1.0179 C   0  0  0  0  0  0  0  0  0  0  0  0
   -0.0946    0.5354   -0.2173 C   0  0  0  0  0  0  0  0  0  0  0  0
   -0.0330    1.5683    0.4185 O   0  0  0  0  0  0  0  0  0  0  0  0
    0.9017   -0.3355   -0.2893 O   0  0  0  0  0  0  0  0  0  0  0  0
    2.1238   -0.0354    0.4061 C   0  0  0  0  0  0  0  0  0  0  0  0
    3.2326   -0.8813   -0.1904 C   0  0  0  0  0  0  0  0  0  0  0  0
   -3.3937   -0.9793    1.5298 H   0  0  0  0  0  0  0  0  0  0  0  0
   -2.3370   -1.9644    0.5144 H   0  0  0  0  0  0  0  0  0  0  0  0
   -1.6453   -0.7681    1.6131 H   0  0  0  0  0  0  0  0  0  0  0  0
   -2.6731    1.0677    0.2955 H   0  0  0  0  0  0  0  0  0  0  0  0
   -3.4160   -0.1154   -0.7911 H   0  0  0  0  0  0  0  0  0  0  0  0
   -1.4157    0.7908   -1.8403 H   0  0  0  0  0  0  0  0  0  0  0  0
   -1.0846   -0.9066   -1.4203 H   0  0  0  0  0  0  0  0  0  0  0  0
    2.3255    1.0362    0.3068 H   0  0  0  0  0  0  0  0  0  0  0  0
    1.9746   -0.2608    1.4670 H   0  0  0  0  0  0  0  0  0  0  0  0
    2.9862   -1.9345   -0.0957 H   0  0  0  0  0  0  0  0  0  0  0  0
    3.3590   -0.6442   -1.2428 H   0  0  0  0  0  0  0  0  0  0  0  0
    4.1599   -0.6803    0.3357 H   0  0  0  0  0  0  0  0  0  0  0  0
  1  2  1  0  0  0  0
  2  3  1  0  0  0  0
  3  4  1  0  0  0  0
  4  5  2  0  0  0  0
  4  6  1  0  0  0  0
  6  7  1  0  0  0  0
  7  8  1  0  0  0  0
  1  9  1  0  0  0  0
  1 10  1  0  0  0  0
  1 11  1  0  0  0  0
  2 12  1  0  0  0  0
  2 13  1  0  0  0  0
  3 14  1  0  0  0  0
  3 15  1  0  0  0  0
  7 16  1  0  0  0  0
  7 17  1  0  0  0  0
  8 18  1  0  0  0  0
  8 19  1  0  0  0  0
  8 20  1  0  0  0  0
M  END
