17
CONF2
C 3.8377111289 -0.2828557822 -0.2984877239
C 2.5233816872 -0.2316755599 0.4716598065
C 1.3264584690 -0.0754982222 -0.4642573578
C 0.0083342780 -0.0225251935 0.3093220342
C -1.1658003977 0.1357543647 -0.6395084128
Cl -2.7170986614 0.1975569241 0.2697204730
H 4.6759773074 -0.3931336876 0.3846652548
H 3.9792964711 0.6303453519 -0.8718042754
H 3.8430192144 -1.1239588579 -0.9877786420
H 2.4084049846 -1.1476564965 1.0546623354
H 2.5455470772 0.6057986776 1.1718686376
H 1.3033809394 -0.9139867819 -1.1628789572
H 1.4418655329 0.8404238057 -1.0468659082
H 0.0264062315 0.8158701931 1.0078996324
H -0.1138450863 -0.9390227261 0.8892335632
H -1.1061622713 1.0665725769 -1.2008643911
H -1.2477182400 -0.7083778691 -1.3219809810
17
CONF1
C 3.3565437527 -0.7471806119 -0.1694697520
C 2.3470967685 0.2651687086 0.3586029687
C 0.9714391087 0.0741975685 -0.2759105937
C -0.0436001299 1.0872389176 0.2497497041
C -1.4154477581 0.9247215765 -0.3787233111
Cl -2.1700758360 -0.6394099306 0.0985009208
H 4.3273926727 -0.5982462148 0.2964599347
H 3.4721218096 -0.6442346758 -1.2460015346
H 3.0252647048 -1.7612593582 0.0430573172
H 2.2622058233 0.1604798145 1.4423587147
H 2.7038139875 1.2759323976 0.1494771525
H 0.6142912372 -0.9361060937 -0.0652905414
H 1.0566176464 0.1768303758 -1.3599892232
H 0.3015535904 2.0982710676 0.0231927937
H -0.1263402271 0.9935660937 1.3339799656
H -2.1034683489 1.6990329112 -0.0451896263
H -1.3594858715 0.9106724172 -1.4657627365
17
CONF7
C 3.1229033678 -0.8714777555 0.3551470900
C 2.6709940053 0.4032040799 -0.3487972199
C 1.3324710609 0.9346598828 0.1660166381
C 0.1586430414 0.0139517102 -0.1734523137
C -1.1518343138 0.6422636158 0.2645780230
Cl -2.5376173808 -0.4391738199 -0.1206677024
H 2.4474076721 -1.6960509068 0.1445782592
H 3.1581515547 -0.7189994769 1.4313943969
H 4.1165301596 -1.1548922314 0.0166764747
H 3.4282692518 1.1752543764 -0.1977104674
H 2.5970459525 0.2181752112 -1.4222553102
H 1.1500356427 1.9149484425 -0.2788297098
H 1.3889456482 1.0651123531 1.2482273650
H 0.2785066374 -0.9467193410 0.3276221695
H 0.1337312893 -0.1657375438 -1.2497465543
H -1.1812492378 0.8006234560 1.3412304747
H -1.3445815209 1.5783942252 -0.2566856334
17
CONF6
C 3.1399342385 -0.7599432202 0.1260120453
C 1.9559492607 0.1302996115 0.4860290340
C 1.0104475171 0.3061879950 -0.7010380700
C -0.1366502556 1.2807638207 -0.4291752830
C -1.1534675230 0.7735602231 0.5783808243
Cl -2.0078568881 -0.6877432280 -0.0366458699
H 2.7950276485 -1.7442426036 -0.1832782648
H 3.8018357414 -0.8808358599 0.9800102281
H 3.7098777397 -0.3253895450 -0.6922186729
H 1.4211513750 -0.3168320826 1.3254884592
H 2.3221231874 1.1088977774 0.8040632098
H 0.5977046463 -0.6645237252 -0.9834495953
H 1.5839823858 0.6800222743 -1.5516433950
H -0.6495113961 1.4983849275 -1.3676165987
H 0.2677023023 2.2170409789 -0.0388498075
H -0.6884491301 0.4779981159 1.5159332798
H -1.9289680069 1.5144166894 0.7630872273
17
CONF4
C 3.6286510867 -0.5133281939 0.1470067362
C 2.1614554672 -0.5136196449 -0.2679718178
C 1.4189937567 0.6888519592 0.3127887496
C -0.0248633019 0.8141613103 -0.1807763114
C -0.9049309842 -0.3068994121 0.3443282408
Cl -2.6149362744 -0.0494759298 -0.1533975509
H 3.7173954153 -0.5477765733 1.2303632927
H 4.1261071782 0.3861443391 -0.2083165944
H 4.1431558297 -1.3765693966 -0.2673058996
H 2.0939798772 -0.4870414957 -1.3574309061
H 1.6957079932 -1.4386430299 0.0743212697
H 1.9531840145 1.5977261756 0.0297679511
H 1.4253135451 0.6269458145 1.4026206653
H -0.0422214974 0.8083105223 -1.2719834949
H -0.4341278960 1.7683558413 0.1560150313
H -0.6207052152 -1.2757217839 -0.0599204661
H -0.9066918364 -0.3373360398 1.4326857692
17
CONF5
C 2.9003715087 -0.6567349982 -0.5425614004
C 2.4233635620 0.2871318839 0.5558467494
C 0.9063921247 0.2738017939 0.7462745767
C 0.1485055406 0.8528959457 -0.4474686264
C -1.3450936590 0.9497347394 -0.1966858303
Cl -2.0849071818 -0.6840864223 -0.0292797914
H 2.5481849068 -0.3335525895 -1.5182747145
H 2.5357171945 -1.6653852452 -0.3607527813
H 3.9870411223 -0.6849407619 -0.5682351331
H 2.8904874398 -0.0066755738 1.4982692090
H 2.7495167655 1.3040333758 0.3279290122
H 0.6593118091 0.8583877402 1.6355461529
H 0.5738113309 -0.7515230063 0.9210310601
H 0.3231763433 0.2418652536 -1.3331124637
H 0.5110976424 1.8627573580 -0.6510757531
H -1.5640379911 1.4736132507 0.7322478231
H -1.8614179218 1.4241986792 -1.0289227887
17
CONF3
C 3.3035558085 0.3294008593 -0.1800790782
C 2.2834551737 -0.6647099617 0.3643798601
C 0.9058542711 -0.5300299551 -0.2846797996
C 0.2083253715 0.7850022273 0.0602170015
C -1.1918377198 0.8698890705 -0.5191765161
Cl -2.2901961842 -0.3402965021 0.2392485056
H 3.0280489771 1.3501766695 0.0698901668
H 3.3761414921 0.2444453967 -1.2619128772
H 4.2841947807 0.1306117794 0.2454428656
H 2.6497994072 -1.6782957738 0.1874074054
H 2.1876743796 -0.5334966517 1.4443404331
H 0.2772987083 -1.3572591526 0.0524238159
H 1.0084513926 -0.6109705590 -1.3689864173
H 0.7743498900 1.6230968980 -0.3486494839
H 0.1617272732 0.9002599786 1.1445505775
H -1.6460981348 1.8402523439 -0.3287743824
H -1.1978401993 0.6521671965 -1.5857689671
17
CONF10
C 2.9167989863 -0.0334854022 -0.6708445629
C 1.8826757610 -0.6995382542 0.2303059702
C 0.9636456031 0.2966842437 0.9399577987
C 0.1174743509 1.1705830591 0.0116910919
C -0.8666105655 0.3960614628 -0.8462468468
Cl -2.0859665624 -0.4601703627 0.1662409585
H 3.4794524774 0.7127928662 -0.1146590263
H 2.4447424977 0.4509655750 -1.5212371979
H 3.6149083987 -0.7754806434 -1.0508844788
H 1.2883674570 -1.4049547653 -0.3527853445
H 2.4032879442 -1.2773416329 0.9974665053
H 1.5745198867 0.9554255040 1.5605166004
H 0.2958548891 -0.2565033744 1.6040300086
H 0.7663380911 1.7309425125 -0.6625512075
H -0.4336545717 1.8902031940 0.6198909786
H -1.4340476475 1.0625064149 -1.4930152749
H -0.3765835079 -0.3716936590 -1.4405423886
17
CONF9
C 2.9557825404 0.1870519078 0.5873287644
C 1.8921885111 -0.7413009526 0.0111217247
C 0.9530271665 -0.0480883246 -0.9778474306
C 0.1189202408 1.0904608388 -0.3868559577
C -0.8653570526 0.6494103203 0.6813564980
Cl -2.1033679764 -0.4729498977 0.0076642949
H 3.5030187294 0.6793321411 -0.2133342079
H 3.6632752958 -0.3810709634 1.1865130870
H 2.5120598510 0.9484992787 1.2229436220
H 2.3873222987 -1.5595409357 -0.5167630022
H 1.3160050494 -1.1869778839 0.8235691887
H 0.2758996706 -0.7943399589 -1.3992620580
H 1.5480007727 0.3580306660 -1.7983727645
H -0.4313191345 1.5743315011 -1.1958329469
H 0.7756072778 1.8360961946 0.0629162030
H -0.3783926517 0.1090096708 1.4897860095
H -1.4197480021 1.4968707668 1.0799426611
17
CONF8
C 2.7577635757 -0.9675657975 -0.1157632930
C 2.3155941087 0.3049628546 0.5982525609
C 1.3945477193 1.1850462074 -0.2493242233
C 0.0798670495 0.5243859515 -0.6753036327
C -0.7870943355 0.1589828931 0.5165755472
Cl -2.3838711022 -0.4623279112 -0.0349570938
H 1.9183306143 -1.6370479880 -0.2828904211
H 3.4955975521 -1.4966093872 0.4824976449
H 3.2050605063 -0.7277097149 -1.0776666684
H 1.8224076133 0.0454240062 1.5359598498
H 3.2013583472 0.8926356584 0.8491803452
H 1.9289045213 1.4795180670 -1.1544371943
H 1.1663121719 2.0935061732 0.3116753373
H 0.2821230632 -0.3686786187 -1.2666881410
H -0.4694029624 1.2231356833 -1.3092114766
H -0.3501591450 -0.6378934892 1.1140931100
H -0.9967647307 1.0266675154 1.1400528794
17
CONF14
C 2.4635546576 -1.0930471954 0.1450305340
C 2.5630397844 0.4042966761 -0.1213157640
C 1.3734662301 1.2094398146 0.4051718467
C 0.0379971186 0.8726577333 -0.2775852146
C -0.7889979500 -0.0975020351 0.5487587506
Cl -2.3306823238 -0.4900270097 -0.2952506956
H 3.3827318935 -1.5879969044 -0.1600099865
H 1.6441575577 -1.5358843211 -0.4146740105
H 2.3092531638 -1.2829022388 1.2048055893
H 3.4686165247 0.7865747354 0.3550441069
H 2.6616662838 0.5730708884 -1.1957491256
H 1.5904306262 2.2662365461 0.2445841891
H 1.2805505732 1.0542132533 1.4813341906
H 0.2241014356 0.4461876981 -1.2642397894
H -0.5449837306 1.7840858548 -0.4186283638
H -0.2810985028 -1.0460716830 0.7044740289
H -1.0724407275 0.3368440996 1.5060201957
17
CONF11
C 2.9952834056 -0.7512753643 -0.1468633227
C 1.5457587645 -0.4119331039 0.1809784705
C 1.1940892749 1.0079529770 -0.2581486358
C -0.2007492970 1.4697625879 0.1678907871
C -1.3460788513 0.7507546621 -0.5285195521
Cl -1.7479705168 -0.8243171386 0.2487992180
H 3.2291168035 -1.7667108348 0.1634755807
H 3.6722970251 -0.0708393481 0.3648948860
H 3.1722851196 -0.6699933190 -1.2170172548
H 0.8904968654 -1.1285552178 -0.3155604300
H 1.3846962561 -0.5078994913 1.2573225856
H 1.2801312917 1.0796891798 -1.3445272080
H 1.9238629538 1.6947333168 0.1764481449
H -0.2980446560 2.5295433809 -0.0771422561
H -0.3100045910 1.3668643910 1.2487061696
H -2.2642591731 1.3325342529 -0.4747055917
H -1.1069219427 0.5246564396 -1.5660997606
17
CONF15
C 2.7154853797 -1.0326068545 -0.3352341399
C 2.3669841082 0.1980968251 0.4962811648
C 1.4179989576 1.1683100796 -0.2209951652
C -0.0568344240 1.0126224300 0.1638387336
C -0.6336979066 -0.3285006598 -0.2515105436
Cl -2.4048326394 -0.3765551173 0.0731464609
H 3.3861828968 -1.6835914832 0.2208695665
H 3.2154369644 -0.7362577706 -1.2546221713
H 1.8277230886 -1.6003172540 -0.5980984826
H 1.9233191087 -0.1122564645 1.4437577859
H 3.2967818689 0.7196425667 0.7312972980
H 1.5242298376 1.0482224579 -1.3001592247
H 1.7027813797 2.1925083895 0.0238464048
H -0.6294350394 1.8056977060 -0.3213246221
H -0.1676830821 1.1344576078 1.2428974376
H -0.5171808414 -0.5016876407 -1.3200306112
H -0.2080646166 -1.1514765639 0.3177971442
17
CONF16
C 2.1514911145 -1.0127445316 -0.4810644968
C 2.1078497611 0.4395619872 -0.0147568171
C 0.9725830258 0.7153108737 0.9832096496
C -0.2341536847 1.4308967930 0.3718011065
C -0.9562850923 0.6403035087 -0.7039804140
Cl -1.6714560673 -0.8729035509 -0.0377417352
H 2.3629611959 -1.6717267350 0.3586111718
H 2.9319863009 -1.1498356815 -1.2264237053
H 1.2040189073 -1.3197301368 -0.9159325409
H 3.0654935353 0.6738156529 0.4538932932
H 2.0028344020 1.0977502335 -0.8791961012
H 1.3452805618 1.3426621822 1.7943768568
H 0.6420441787 -0.2257597725 1.4258514943
H 0.0948865117 2.3672641914 -0.0840461967
H -0.9404994217 1.6738893525 1.1678442485
H -1.7911491851 1.2062416875 -1.1133965600
H -0.2859945746 0.3339927749 -1.5036157931
17
CONF13
C 2.4643843349 -0.5714779942 -0.8449569972
C 2.3676117737 0.1617352086 0.4879704968
C 0.9390227690 0.3116913796 1.0149699010
C 0.0335418866 1.1837425661 0.1345628102
C -0.8282255637 0.3911655319 -0.8332970490
Cl -2.0587425513 -0.5843824321 0.0526152216
H 2.0143272694 0.0100904380 -1.6449839823
H 1.9648433735 -1.5361036959 -0.7860884682
H 3.5074217583 -0.7442178899 -1.1004893877
H 2.9468119288 -0.3875849743 1.2337280479
H 2.8174229063 1.1520107692 0.3882136481
H 0.9969466813 0.7563770325 2.0100178518
H 0.4875834324 -0.6755774039 1.1291819258
H 0.6447144198 1.8711604923 -0.4530442074
H -0.6243940359 1.7834970294 0.7653093125
H -1.3918990380 1.0486428841 -1.4926729008
H -0.2495435767 -0.3220642647 -1.4142964893
17
CONF12
C 2.1442004405 -0.8640365989 0.6001580712
C 1.6938976156 -0.1291353330 -0.6572149560
C 1.1797771380 1.2832647431 -0.3750511711
C -0.0820230679 1.3640132074 0.4875838597
C -1.3340385127 0.8039313018 -0.1701791681
Cl -1.4880562475 -0.9804223044 0.0326385147
H 2.8640481824 -0.2665475835 1.1553718707
H 2.6125159793 -1.8092552147 0.3355803320
H 1.2987850129 -1.0810888178 1.2480471042
H 2.5418273852 -0.0493167828 -1.3417647217
H 0.9223120679 -0.7131028822 -1.1600733890
H 0.9815571700 1.7790600956 -1.3279805308
H 1.9694024723 1.8434311759 0.1305672150
H -0.2786722267 2.4186625735 0.6923648923
H 0.0821389521 0.8694786558 1.4446982614
H -2.2329801607 1.2150727321 0.2851823103
H -1.3406800172 0.9879960678 -1.2431533329
