 xtb: 6.7.1 (edcfbbe)
          04112512293D

 16 15  0     0  0            999 V2000
    1.9238   -0.7278   -0.1629 C   0  0  0  0  0  0  0  0  0  0  0  0
    1.1273    0.3433    0.5740 C   0  0  0  0  0  0  0  0  0  0  0  0
    0.0247    0.9709   -0.2818 C   0  0  0  0  0  0  0  0  0  0  0  0
   -1.1134    0.0069   -0.6565 C   0  0  0  0  0  0  0  0  0  0  0  0
   -1.8892   -0.5173    0.4568 N   0  0  0  0  0  0  0  0  0  0  0  0
    2.7403   -1.0841    0.4607 H   0  0  0  0  0  0  0  0  0  0  0  0
    1.2963   -1.5782   -0.4175 H   0  0  0  0  0  0  0  0  0  0  0  0
    2.3431   -0.3230   -1.0812 H   0  0  0  0  0  0  0  0  0  0  0  0
    0.6927   -0.0858    1.4805 H   0  0  0  0  0  0  0  0  0  0  0  0
    1.8090    1.1370    0.8888 H   0  0  0  0  0  0  0  0  0  0  0  0
   -0.4040    1.8179    0.2619 H   0  0  0  0  0  0  0  0  0  0  0  0
    0.4639    1.3570   -1.2037 H   0  0  0  0  0  0  0  0  0  0  0  0
   -0.7136   -0.8456   -1.2097 H   0  0  0  0  0  0  0  0  0  0  0  0
   -1.8103    0.5327   -1.3161 H   0  0  0  0  0  0  0  0  0  0  0  0
   -1.2887   -1.0617    1.0668 H   0  0  0  0  0  0  0  0  0  0  0  0
   -2.2585    0.2528    1.0051 H   0  0  0  0  0  0  0  0  0  0  0  0
  1  2  1  0  0  0  0
  2  3  1  0  0  0  0
  3  4  1  0  0  0  0
  4  5  1  0  0  0  0
  1  6  1  0  0  0  0
  1  7  1  0  0  0  0
  1  8  1  0  0  0  0
  2  9  1  0  0  0  0
  2 10  1  0  0  0  0
  3 11  1  0  0  0  0
  3 12  1  0  0  0  0
  4 13  1  0  0  0  0
  4 14  1  0  0  0  0
  5 15  1  0  0  0  0
  5 16  1  0  0  0  0
M  END
