 xtb: 6.7.1 (edcfbbe)
          04112515533D

 20 19  0     0  0            999 V2000
   -3.4173   -0.9831    0.3284 C   0  0  0  0  0  0  0  0  0  0  0  0
   -2.0753   -0.3184    0.6063 C   0  0  0  0  0  0  0  0  0  0  0  0
   -1.2946   -0.0801   -0.6953 C   0  0  0  0  0  0  0  0  0  0  0  0
    0.0095    0.5963   -0.3719 C   0  0  0  0  0  0  0  0  0  0  0  0
    0.1833    1.7984   -0.3474 O   0  0  0  0  0  0  0  0  0  0  0  0
    0.9557   -0.2819   -0.0754 O   0  0  0  0  0  0  0  0  0  0  0  0
    2.2512    0.2147    0.3018 C   0  0  0  0  0  0  0  0  0  0  0  0
    3.2426   -0.9297    0.2136 C   0  0  0  0  0  0  0  0  0  0  0  0
   -3.9553   -1.1428    1.2587 H   0  0  0  0  0  0  0  0  0  0  0  0
   -4.0259   -0.3571   -0.3189 H   0  0  0  0  0  0  0  0  0  0  0  0
   -3.2723   -1.9445   -0.1573 H   0  0  0  0  0  0  0  0  0  0  0  0
   -1.4791   -0.9512    1.2664 H   0  0  0  0  0  0  0  0  0  0  0  0
   -2.2321    0.6400    1.1060 H   0  0  0  0  0  0  0  0  0  0  0  0
   -1.8701    0.5668   -1.3569 H   0  0  0  0  0  0  0  0  0  0  0  0
   -1.0914   -1.0337   -1.1805 H   0  0  0  0  0  0  0  0  0  0  0  0
    2.5148    1.0393   -0.3685 H   0  0  0  0  0  0  0  0  0  0  0  0
    2.1817    0.6095    1.3206 H   0  0  0  0  0  0  0  0  0  0  0  0
    3.2903   -1.3049   -0.8045 H   0  0  0  0  0  0  0  0  0  0  0  0
    4.2246   -0.5779    0.5119 H   0  0  0  0  0  0  0  0  0  0  0  0
    2.9350   -1.7376    0.8708 H   0  0  0  0  0  0  0  0  0  0  0  0
  1  2  1  0  0  0  0
  2  3  1  0  0  0  0
  3  4  1  0  0  0  0
  4  5  2  0  0  0  0
  4  6  1  0  0  0  0
  6  7  1  0  0  0  0
  7  8  1  0  0  0  0
  1  9  1  0  0  0  0
  1 10  1  0  0  0  0
  1 11  1  0  0  0  0
  2 12  1  0  0  0  0
  2 13  1  0  0  0  0
  3 14  1  0  0  0  0
  3 15  1  0  0  0  0
  7 16  1  0  0  0  0
  7 17  1  0  0  0  0
  8 18  1  0  0  0  0
  8 19  1  0  0  0  0
  8 20  1  0  0  0  0
M  END
