11
 xtb: 6.7.1 (edcfbbe)
C           -0.00029085400170        1.29035916154582        0.00081108664642
C           -0.93075245550724        0.49066451741660       -0.88089105644559
Cl          -2.03787661078540       -0.60079443079834        0.10764522547161
C            0.93034364421929        0.48950209167365        0.88127129427031
Cl           2.03773049508100       -0.60017025436863       -0.10894861441844
H            0.57975146743072        1.94363311772285       -0.66306370204981
H           -0.58048173243643        1.94246232724497        0.66570647410098
H           -1.59032789481929        1.14534089160292       -1.45090880725785
H           -0.39248170984899       -0.17201416293788       -1.56005360753953
H            0.39222126856789       -0.17435469378478        1.55939781877376
H            1.58976991383438        1.14343751283651        1.45230812131315
