17
 xtb: 6.7.1 (edcfbbe)
C            3.13022610797763       -0.77685331462754        0.13346918950315
C            1.91675293249813        0.08094017548120        0.48062860415730
C            1.02894361627055        0.33953562865720       -0.73605802021336
C           -0.15387753632858        1.27007661133182       -0.46782839241116
C           -1.11770720072026        0.81835861802676        0.60558355714995
Cl          -1.91380310554388       -0.79545897171789        0.17993420283548
H            2.82050202629950       -1.75508373364543       -0.25157085996284
H            3.76399977579199       -0.94808688019517        1.00965350000607
H            3.74433793547273       -0.29553039593933       -0.63609779704153
H            1.33768966443625       -0.41703353109281        1.26828743992068
H            2.24793445776967        1.04163047230073        0.89722245652202
H            0.66214285490839       -0.61736837458520       -1.12895133339031
H            1.63748446490399        0.78707014486864       -1.53212319743341
H           -0.70617678405571        1.45191106801133       -1.39653131731472
H            0.22096983096422        2.24680763627291       -0.12747988715496
H           -0.63552530885439        0.65568131271821        1.57042576251027
H           -1.94305217394961        1.52145112169901        0.72652691411078
