 xtb: 6.7.1 (edcfbbe)
          04112517463D

 20 19  0     0  0            999 V2000
   -2.3178   -1.4194   -0.2799 C   0  0  0  0  0  0  0  0  0  0  0  0
   -2.5230    0.0549    0.0463 C   0  0  0  0  0  0  0  0  0  0  0  0
   -1.3263    0.6370    0.8070 C   0  0  0  0  0  0  0  0  0  0  0  0
   -0.0992    0.6535   -0.0672 C   0  0  0  0  0  0  0  0  0  0  0  0
   -0.0199    1.2070   -1.1454 O   0  0  0  0  0  0  0  0  0  0  0  0
    0.9037   -0.0207    0.4765 O   0  0  0  0  0  0  0  0  0  0  0  0
    2.1416   -0.0921   -0.2510 C   0  0  0  0  0  0  0  0  0  0  0  0
    3.0611   -1.0567    0.4724 C   0  0  0  0  0  0  0  0  0  0  0  0
   -3.1891   -1.8188   -0.7921 H   0  0  0  0  0  0  0  0  0  0  0  0
   -1.4521   -1.5487   -0.9270 H   0  0  0  0  0  0  0  0  0  0  0  0
   -2.1561   -1.9932    0.6294 H   0  0  0  0  0  0  0  0  0  0  0  0
   -3.4183    0.1745    0.6568 H   0  0  0  0  0  0  0  0  0  0  0  0
   -2.6577    0.6210   -0.8774 H   0  0  0  0  0  0  0  0  0  0  0  0
   -1.1097    0.0526    1.7003 H   0  0  0  0  0  0  0  0  0  0  0  0
   -1.5438    1.6684    1.0885 H   0  0  0  0  0  0  0  0  0  0  0  0
    1.9247   -0.4215   -1.2727 H   0  0  0  0  0  0  0  0  0  0  0  0
    2.5688    0.9147   -0.3019 H   0  0  0  0  0  0  0  0  0  0  0  0
    3.2394   -0.7091    1.4856 H   0  0  0  0  0  0  0  0  0  0  0  0
    2.6079   -2.0426    0.5150 H   0  0  0  0  0  0  0  0  0  0  0  0
    4.0057   -1.1187   -0.0576 H   0  0  0  0  0  0  0  0  0  0  0  0
  1  2  1  0  0  0  0
  2  3  1  0  0  0  0
  3  4  1  0  0  0  0
  4  5  2  0  0  0  0
  4  6  1  0  0  0  0
  6  7  1  0  0  0  0
  7  8  1  0  0  0  0
  1  9  1  0  0  0  0
  1 10  1  0  0  0  0
  1 11  1  0  0  0  0
  2 12  1  0  0  0  0
  2 13  1  0  0  0  0
  3 14  1  0  0  0  0
  3 15  1  0  0  0  0
  7 16  1  0  0  0  0
  7 17  1  0  0  0  0
  8 18  1  0  0  0  0
  8 19  1  0  0  0  0
  8 20  1  0  0  0  0
M  END
