20
 xtb: 6.7.1 (edcfbbe)
C           -2.33698533373769       -1.18462938071825        0.77716109233267
C           -2.54134392392825        0.05172953179676       -0.09178422301416
C           -1.33668779392225        0.32641374803695       -1.00299382603415
C           -0.10674400584526        0.62002143108394       -0.19075461822665
O           -0.02454369909700        1.52467096365055        0.62632336251851
O            0.90446824754840       -0.22720880122952       -0.45199253442776
C            2.14210341971719       -0.01616854422315        0.30366869569584
C            3.10608741536289       -1.09623016745157       -0.11417503363325
H           -3.21452774381757       -1.37580155716209        1.40206907691059
H           -2.16125969315754       -2.07209459689895        0.15964204806367
H           -1.47490409889239       -1.06448709188414        1.44399994016529
H           -2.72517885005901        0.93028570984500        0.53622941837271
H           -3.42309984578456       -0.07743597780784       -0.72793653225815
H           -1.52898402993967        1.21105521387753       -1.62152260553935
H           -1.15252566593719       -0.52294499278279       -1.66567900034883
H            2.51795245150154        0.98461222145309        0.07153610793131
H            1.90445368217163       -0.06788890420527        1.37005521798577
H            4.04609896317635       -0.96610097413649        0.43012950627729
H            2.70940949124701       -2.08837033749228        0.11907349968060
H            3.31955642257102       -1.04151512746923       -1.18524949808981
