 xtb: 6.7.1 (edcfbbe)
          04112516163D

 31 32  0     0  0            999 V2000
   -3.5478    0.2288   -1.8175 C   0  0  0  0  0  0  0  0  0  0  0  0
   -3.1384   -0.4366   -0.5033 C   0  0  0  0  0  0  0  0  0  0  0  0
   -3.5574   -1.4454   -0.4469 H   0  0  0  0  0  0  0  0  0  0  0  0
   -1.6319   -0.5290   -0.3549 C   0  0  0  0  0  0  0  0  0  0  0  0
   -1.0250   -1.7875   -0.1927 C   0  0  0  0  0  0  0  0  0  0  0  0
    0.3309   -1.9017   -0.0623 C   0  0  0  0  0  0  0  0  0  0  0  0
    1.1592   -0.7612   -0.0812 C   0  0  0  0  0  0  0  0  0  0  0  0
    2.5601   -0.8564    0.0549 C   0  0  0  0  0  0  0  0  0  0  0  0
    3.3368    0.2747    0.0369 C   0  0  0  0  0  0  0  0  0  0  0  0
    2.7302    1.5437   -0.1201 C   0  0  0  0  0  0  0  0  0  0  0  0
    1.3799    1.6559   -0.2530 C   0  0  0  0  0  0  0  0  0  0  0  0
    0.5524    0.5106   -0.2380 C   0  0  0  0  0  0  0  0  0  0  0  0
   -0.8458    0.5959   -0.3696 C   0  0  0  0  0  0  0  0  0  0  0  0
    4.6945    0.3041    0.1604 O   0  0  0  0  0  0  0  0  0  0  0  0
    5.3842   -0.9199    0.3230 C   0  0  0  0  0  0  0  0  0  0  0  0
   -3.6397    0.3145    0.7107 C   0  0  0  0  0  0  0  0  0  0  0  0
   -4.0080   -0.2315    1.7315 O   0  0  0  0  0  0  0  0  0  0  0  0
   -3.6054    1.6274    0.5822 O   0  0  0  0  0  0  0  0  0  0  0  0
   -4.6310    0.2435   -1.9077 H   0  0  0  0  0  0  0  0  0  0  0  0
   -3.1804    1.2489   -1.8637 H   0  0  0  0  0  0  0  0  0  0  0  0
   -3.1324   -0.3328   -2.6496 H   0  0  0  0  0  0  0  0  0  0  0  0
   -1.6456   -2.6712   -0.1727 H   0  0  0  0  0  0  0  0  0  0  0  0
    0.7847   -2.8743    0.0591 H   0  0  0  0  0  0  0  0  0  0  0  0
    2.9917   -1.8377    0.1731 H   0  0  0  0  0  0  0  0  0  0  0  0
    3.3763    2.4072   -0.1295 H   0  0  0  0  0  0  0  0  0  0  0  0
    0.9233    2.6267   -0.3727 H   0  0  0  0  0  0  0  0  0  0  0  0
   -1.2921    1.5733   -0.4776 H   0  0  0  0  0  0  0  0  0  0  0  0
    5.0665   -1.4326    1.2347 H   0  0  0  0  0  0  0  0  0  0  0  0
    6.4347   -0.6496    0.4014 H   0  0  0  0  0  0  0  0  0  0  0  0
    5.2348   -1.5734   -0.5403 H   0  0  0  0  0  0  0  0  0  0  0  0
   -3.9017    2.0915    1.3892 H   0  0  0  0  0  0  0  0  0  0  0  0
  1  2  1  0  0  0  0
  2  3  1  0  0  0  0
  2  4  1  0  0  0  0
  4  5  4  0  0  0  0
  5  6  2  0  0  0  0
  6  7  4  0  0  0  0
  7  8  4  0  0  0  0
  8  9  4  0  0  0  0
  9 10  4  0  0  0  0
 10 11  2  0  0  0  0
  7 12  4  0  0  0  0
 11 12  4  0  0  0  0
  4 13  2  0  0  0  0
 12 13  4  0  0  0  0
  9 14  1  0  0  0  0
 14 15  1  0  0  0  0
  2 16  1  0  0  0  0
 16 17  2  0  0  0  0
 16 18  1  0  0  0  0
  1 19  1  0  0  0  0
  1 20  1  0  0  0  0
  1 21  1  0  0  0  0
  5 22  1  0  0  0  0
  6 23  1  0  0  0  0
  8 24  1  0  0  0  0
 10 25  1  0  0  0  0
 11 26  1  0  0  0  0
 13 27  1  0  0  0  0
 15 28  1  0  0  0  0
 15 29  1  0  0  0  0
 15 30  1  0  0  0  0
 18 31  1  0  0  0  0
M  END
