 xtb: 6.7.1 (edcfbbe)
          04112516433D

 20 19  0     0  0            999 V2000
   -3.6464   -0.6209    0.2474 C   0  0  0  0  0  0  0  0  0  0  0  0
   -2.3502   -0.1635   -0.4086 C   0  0  0  0  0  0  0  0  0  0  0  0
   -1.1805   -0.2182    0.5700 C   0  0  0  0  0  0  0  0  0  0  0  0
    0.1087    0.2510   -0.0509 C   0  0  0  0  0  0  0  0  0  0  0  0
    0.2280    0.6866   -1.1761 O   0  0  0  0  0  0  0  0  0  0  0  0
    1.1201    0.1407    0.8063 O   0  0  0  0  0  0  0  0  0  0  0  0
    2.4320    0.5365    0.3710 C   0  0  0  0  0  0  0  0  0  0  0  0
    3.1437   -0.6054   -0.3384 C   0  0  0  0  0  0  0  0  0  0  0  0
   -3.8917    0.0172    1.0926 H   0  0  0  0  0  0  0  0  0  0  0  0
   -4.4650   -0.5775   -0.4655 H   0  0  0  0  0  0  0  0  0  0  0  0
   -3.5532   -1.6440    0.6029 H   0  0  0  0  0  0  0  0  0  0  0  0
   -2.4572    0.8582   -0.7777 H   0  0  0  0  0  0  0  0  0  0  0  0
   -2.1241   -0.7947   -1.2699 H   0  0  0  0  0  0  0  0  0  0  0  0
   -1.0253   -1.2347    0.9362 H   0  0  0  0  0  0  0  0  0  0  0  0
   -1.3761    0.4122    1.4400 H   0  0  0  0  0  0  0  0  0  0  0  0
    2.3333    1.4004   -0.2932 H   0  0  0  0  0  0  0  0  0  0  0  0
    2.9507    0.8195    1.2874 H   0  0  0  0  0  0  0  0  0  0  0  0
    2.6126   -0.8649   -1.2515 H   0  0  0  0  0  0  0  0  0  0  0  0
    4.1524   -0.2972   -0.5932 H   0  0  0  0  0  0  0  0  0  0  0  0
    3.1866   -1.4782    0.3073 H   0  0  0  0  0  0  0  0  0  0  0  0
  1  2  1  0  0  0  0
  2  3  1  0  0  0  0
  3  4  1  0  0  0  0
  4  5  2  0  0  0  0
  4  6  1  0  0  0  0
  6  7  1  0  0  0  0
  7  8  1  0  0  0  0
  1  9  1  0  0  0  0
  1 10  1  0  0  0  0
  1 11  1  0  0  0  0
  2 12  1  0  0  0  0
  2 13  1  0  0  0  0
  3 14  1  0  0  0  0
  3 15  1  0  0  0  0
  7 16  1  0  0  0  0
  7 17  1  0  0  0  0
  8 18  1  0  0  0  0
  8 19  1  0  0  0  0
  8 20  1  0  0  0  0
M  END
