 xtb: 6.7.1 (edcfbbe)
          04112515593D

 20 19  0     0  0            999 V2000
   -3.2510   -0.1736    0.9896 C   0  0  0  0  0  0  0  0  0  0  0  0
   -2.6907   -0.4371   -0.4036 C   0  0  0  0  0  0  0  0  0  0  0  0
   -1.1710   -0.6032   -0.4198 C   0  0  0  0  0  0  0  0  0  0  0  0
   -0.4386    0.6899   -0.0532 C   0  0  0  0  0  0  0  0  0  0  0  0
    1.0574    0.5644   -0.1567 C   0  0  0  0  0  0  0  0  0  0  0  0
    1.7915    1.4282   -0.5937 O   0  0  0  0  0  0  0  0  0  0  0  0
    1.5047   -0.5994    0.2989 O   0  0  0  0  0  0  0  0  0  0  0  0
    2.9154   -0.8263    0.2634 C   0  0  0  0  0  0  0  0  0  0  0  0
   -4.3377   -0.1690    0.9612 H   0  0  0  0  0  0  0  0  0  0  0  0
   -2.9295   -0.9488    1.6811 H   0  0  0  0  0  0  0  0  0  0  0  0
   -2.9209    0.7893    1.3698 H   0  0  0  0  0  0  0  0  0  0  0  0
   -3.1369   -1.3527   -0.7962 H   0  0  0  0  0  0  0  0  0  0  0  0
   -2.9722    0.3805   -1.0702 H   0  0  0  0  0  0  0  0  0  0  0  0
   -0.8595   -0.9120   -1.4198 H   0  0  0  0  0  0  0  0  0  0  0  0
   -0.8805   -1.3893    0.2781 H   0  0  0  0  0  0  0  0  0  0  0  0
   -0.6617    0.9600    0.9811 H   0  0  0  0  0  0  0  0  0  0  0  0
   -0.7497    1.5142   -0.6964 H   0  0  0  0  0  0  0  0  0  0  0  0
    3.0509   -1.8708    0.5261 H   0  0  0  0  0  0  0  0  0  0  0  0
    3.4147   -0.1751    0.9817 H   0  0  0  0  0  0  0  0  0  0  0  0
    3.3032   -0.6168   -0.7342 H   0  0  0  0  0  0  0  0  0  0  0  0
  1  2  1  0  0  0  0
  2  3  1  0  0  0  0
  3  4  1  0  0  0  0
  4  5  1  0  0  0  0
  5  6  2  0  0  0  0
  5  7  1  0  0  0  0
  7  8  1  0  0  0  0
  1  9  1  0  0  0  0
  1 10  1  0  0  0  0
  1 11  1  0  0  0  0
  2 12  1  0  0  0  0
  2 13  1  0  0  0  0
  3 14  1  0  0  0  0
  3 15  1  0  0  0  0
  4 16  1  0  0  0  0
  4 17  1  0  0  0  0
  8 18  1  0  0  0  0
  8 19  1  0  0  0  0
  8 20  1  0  0  0  0
M  END
