 xtb: 6.7.1 (edcfbbe)
          04112515533D

 20 19  0     0  0            999 V2000
   -3.3912   -1.0225    0.3087 C   0  0  0  0  0  0  0  0  0  0  0  0
   -2.0421   -0.3787    0.6015 C   0  0  0  0  0  0  0  0  0  0  0  0
   -1.3111   -0.0080   -0.6979 C   0  0  0  0  0  0  0  0  0  0  0  0
    0.0049    0.6369   -0.3587 C   0  0  0  0  0  0  0  0  0  0  0  0
    0.1885    1.8330   -0.2511 O   0  0  0  0  0  0  0  0  0  0  0  0
    0.9528   -0.2642   -0.1486 O   0  0  0  0  0  0  0  0  0  0  0  0
    2.2557    0.2062    0.2366 C   0  0  0  0  0  0  0  0  0  0  0  0
    3.1977   -0.9817    0.2668 C   0  0  0  0  0  0  0  0  0  0  0  0
   -3.2604   -1.9303   -0.2741 H   0  0  0  0  0  0  0  0  0  0  0  0
   -3.8935   -1.2769    1.2379 H   0  0  0  0  0  0  0  0  0  0  0  0
   -4.0256   -0.3403   -0.2512 H   0  0  0  0  0  0  0  0  0  0  0  0
   -1.4196   -1.0689    1.1738 H   0  0  0  0  0  0  0  0  0  0  0  0
   -2.1843    0.5245    1.1987 H   0  0  0  0  0  0  0  0  0  0  0  0
   -1.9104    0.6992   -1.2704 H   0  0  0  0  0  0  0  0  0  0  0  0
   -1.1266   -0.9082   -1.2827 H   0  0  0  0  0  0  0  0  0  0  0  0
    2.5767    0.9648   -0.4849 H   0  0  0  0  0  0  0  0  0  0  0  0
    2.1728    0.6839    1.2184 H   0  0  0  0  0  0  0  0  0  0  0  0
    2.8410   -1.7201    0.9785 H   0  0  0  0  0  0  0  0  0  0  0  0
    3.2506   -1.4398   -0.7163 H   0  0  0  0  0  0  0  0  0  0  0  0
    4.1873   -0.6483    0.5609 H   0  0  0  0  0  0  0  0  0  0  0  0
  1  2  1  0  0  0  0
  2  3  1  0  0  0  0
  3  4  1  0  0  0  0
  4  5  2  0  0  0  0
  4  6  1  0  0  0  0
  6  7  1  0  0  0  0
  7  8  1  0  0  0  0
  1  9  1  0  0  0  0
  1 10  1  0  0  0  0
  1 11  1  0  0  0  0
  2 12  1  0  0  0  0
  2 13  1  0  0  0  0
  3 14  1  0  0  0  0
  3 15  1  0  0  0  0
  7 16  1  0  0  0  0
  7 17  1  0  0  0  0
  8 18  1  0  0  0  0
  8 19  1  0  0  0  0
  8 20  1  0  0  0  0
M  END
