20
 xtb: 6.7.1 (edcfbbe)
C           -2.41460180902867       -0.73671532441249        1.07900423264848
C           -2.11022919352669       -0.78255233415719       -0.41474798602968
C           -1.42676541674754        0.50122538937315       -0.91638642114394
C           -0.15044508116219        0.78271576976743       -0.17548253496613
O            0.03251299379448        1.72821624711127        0.57632271606790
O            0.78721582862550       -0.14963650657782       -0.42123105808269
C            2.06542755519938        0.01032918817885        0.27324880114455
C            2.96196651855067       -1.11298213929241       -0.18041899920260
H           -3.03581523539258        0.13097438356267        1.32708796724785
H           -2.94886792596739       -1.63715825665516        1.39687945475711
H           -1.49470342611195       -0.67050143100468        1.67189669023855
H           -3.03795845828651       -0.90720021877485       -0.98301410731653
H           -1.47621763553232       -1.64556438965406       -0.64418733885813
H           -2.08506717286886        1.36190527990821       -0.77493251712079
H           -1.19596294432537        0.40677035185595       -1.98297018407019
H            2.47598791846664        0.99123454598229        0.01639500106929
H            1.87665676935333       -0.02442608198277        1.35054947963115
H            2.53368603583146       -2.08681427510435        0.07366622431011
H            3.13112680673595       -1.06906427400867       -1.26014346273578
H            3.92938239459883       -1.02170788884109        0.32225175590883
