 xtb: 6.7.1 (edcfbbe)
          04112512293D

 16 15  0     0  0            999 V2000
    2.1251   -0.3240   -0.6026 C   0  0  0  0  0  0  0  0  0  0  0  0
    1.3873    0.4871    0.4569 C   0  0  0  0  0  0  0  0  0  0  0  0
   -0.0217   -0.0334    0.7407 C   0  0  0  0  0  0  0  0  0  0  0  0
   -0.9893    0.1582   -0.4356 C   0  0  0  0  0  0  0  0  0  0  0  0
   -2.3656   -0.2252   -0.1549 N   0  0  0  0  0  0  0  0  0  0  0  0
    1.6334   -0.2425   -1.5681 H   0  0  0  0  0  0  0  0  0  0  0  0
    3.1447    0.0382   -0.7092 H   0  0  0  0  0  0  0  0  0  0  0  0
    2.1618   -1.3739   -0.3205 H   0  0  0  0  0  0  0  0  0  0  0  0
    1.9609    0.4576    1.3864 H   0  0  0  0  0  0  0  0  0  0  0  0
    1.3260    1.5301    0.1387 H   0  0  0  0  0  0  0  0  0  0  0  0
    0.0287   -1.0958    0.9956 H   0  0  0  0  0  0  0  0  0  0  0  0
   -0.4242    0.4978    1.6087 H   0  0  0  0  0  0  0  0  0  0  0  0
   -0.6591   -0.4334   -1.2922 H   0  0  0  0  0  0  0  0  0  0  0  0
   -0.9955    1.2110   -0.7326 H   0  0  0  0  0  0  0  0  0  0  0  0
   -2.7135    0.3124    0.6327 H   0  0  0  0  0  0  0  0  0  0  0  0
   -2.3957   -1.2033    0.1141 H   0  0  0  0  0  0  0  0  0  0  0  0
  1  2  1  0  0  0  0
  2  3  1  0  0  0  0
  3  4  1  0  0  0  0
  4  5  1  0  0  0  0
  1  6  1  0  0  0  0
  1  7  1  0  0  0  0
  1  8  1  0  0  0  0
  2  9  1  0  0  0  0
  2 10  1  0  0  0  0
  3 11  1  0  0  0  0
  3 12  1  0  0  0  0
  4 13  1  0  0  0  0
  4 14  1  0  0  0  0
  5 15  1  0  0  0  0
  5 16  1  0  0  0  0
M  END
