 xtb: 6.7.1 (edcfbbe)
          04112518223D

 33 35  0     0  0            999 V2000
   -4.6202   -1.1640   -0.0665 C   0  0  0  0  0  0  0  0  0  0  0  0
   -3.8275   -2.3018   -0.1276 C   0  0  0  0  0  0  0  0  0  0  0  0
   -2.4497   -2.1865   -0.1233 C   0  0  0  0  0  0  0  0  0  0  0  0
   -1.8397   -0.9356   -0.0574 C   0  0  0  0  0  0  0  0  0  0  0  0
   -2.6405    0.2105    0.0046 C   0  0  0  0  0  0  0  0  0  0  0  0
   -4.0285    0.0832   -0.0009 C   0  0  0  0  0  0  0  0  0  0  0  0
   -2.0368    1.5473    0.0756 C   0  0  0  0  0  0  0  0  0  0  0  0
   -2.7282    2.5625    0.1265 O   0  0  0  0  0  0  0  0  0  0  0  0
   -0.5648    1.6125    0.0837 C   0  0  0  0  0  0  0  0  0  0  0  0
    0.0072    2.8710    0.1578 C   0  0  0  0  0  0  0  0  0  0  0  0
    1.3921    3.0170    0.1717 C   0  0  0  0  0  0  0  0  0  0  0  0
    2.2008    1.9141    0.1105 C   0  0  0  0  0  0  0  0  0  0  0  0
    1.6606    0.6069    0.0323 C   0  0  0  0  0  0  0  0  0  0  0  0
    0.2404    0.4510    0.0193 C   0  0  0  0  0  0  0  0  0  0  0  0
   -0.3653   -0.8606   -0.0564 C   0  0  0  0  0  0  0  0  0  0  0  0
    0.2910   -1.9156   -0.1198 O   0  0  0  0  0  0  0  0  0  0  0  0
    2.4671   -0.4582   -0.0314 N   0  0  0  0  0  0  0  0  0  0  0  0
    3.9079   -0.4290   -0.0187 C   0  0  0  0  0  0  0  0  0  0  0  0
    4.4482   -1.8634   -0.0728 C   0  0  0  0  0  0  0  0  0  0  0  0
    5.8521   -1.9084    0.0089 O   0  0  0  0  0  0  0  0  0  0  0  0
   -5.6953   -1.2509   -0.0699 H   0  0  0  0  0  0  0  0  0  0  0  0
   -4.2843   -3.2776   -0.1788 H   0  0  0  0  0  0  0  0  0  0  0  0
   -1.8156   -3.0594   -0.1706 H   0  0  0  0  0  0  0  0  0  0  0  0
   -4.6204    0.9853    0.0476 H   0  0  0  0  0  0  0  0  0  0  0  0
   -0.6466    3.7283    0.2047 H   0  0  0  0  0  0  0  0  0  0  0  0
    1.8243    4.0034    0.2309 H   0  0  0  0  0  0  0  0  0  0  0  0
    3.2706    2.0350    0.1231 H   0  0  0  0  0  0  0  0  0  0  0  0
    2.0032   -1.3626   -0.0783 H   0  0  0  0  0  0  0  0  0  0  0  0
    4.2786    0.0499    0.8952 H   0  0  0  0  0  0  0  0  0  0  0  0
    4.2809    0.1350   -0.8828 H   0  0  0  0  0  0  0  0  0  0  0  0
    4.0935   -2.3599   -0.9850 H   0  0  0  0  0  0  0  0  0  0  0  0
    4.0856   -2.4258    0.7909 H   0  0  0  0  0  0  0  0  0  0  0  0
    6.2361   -1.4935   -0.7764 H   0  0  0  0  0  0  0  0  0  0  0  0
  1  2  4  0  0  0  0
  2  3  4  0  0  0  0
  3  4  4  0  0  0  0
  4  5  4  0  0  0  0
  1  6  4  0  0  0  0
  5  6  4  0  0  0  0
  5  7  1  0  0  0  0
  7  8  2  0  0  0  0
  7  9  1  0  0  0  0
  9 10  4  0  0  0  0
 10 11  4  0  0  0  0
 11 12  2  0  0  0  0
 12 13  4  0  0  0  0
  9 14  4  0  0  0  0
 13 14  4  0  0  0  0
  4 15  1  0  0  0  0
 14 15  1  0  0  0  0
 15 16  2  0  0  0  0
 13 17  4  0  0  0  0
 17 18  1  0  0  0  0
 18 19  1  0  0  0  0
 19 20  1  0  0  0  0
  1 21  1  0  0  0  0
  2 22  1  0  0  0  0
  3 23  1  0  0  0  0
  6 24  1  0  0  0  0
 10 25  1  0  0  0  0
 11 26  1  0  0  0  0
 12 27  1  0  0  0  0
 17 28  1  0  0  0  0
 18 29  1  0  0  0  0
 18 30  1  0  0  0  0
 19 31  1  0  0  0  0
 19 32  1  0  0  0  0
 20 33  1  0  0  0  0
M  END
