 xtb: 6.7.1 (edcfbbe)
          04112515593D

 20 19  0     0  0            999 V2000
   -2.7526   -0.2814   -0.7985 C   0  0  0  0  0  0  0  0  0  0  0  0
   -1.8807   -0.8001    0.3398 C   0  0  0  0  0  0  0  0  0  0  0  0
   -1.2514    0.3163    1.1746 C   0  0  0  0  0  0  0  0  0  0  0  0
   -0.3153    1.2267    0.3680 C   0  0  0  0  0  0  0  0  0  0  0  0
    0.7853    0.4330   -0.2858 C   0  0  0  0  0  0  0  0  0  0  0  0
    0.9400    0.3198   -1.4846 O   0  0  0  0  0  0  0  0  0  0  0  0
    1.5737   -0.1369    0.6170 O   0  0  0  0  0  0  0  0  0  0  0  0
    2.6656   -0.9490    0.1777 C   0  0  0  0  0  0  0  0  0  0  0  0
   -3.2782   -1.1059   -1.2737 H   0  0  0  0  0  0  0  0  0  0  0  0
   -3.4883    0.4260   -0.4235 H   0  0  0  0  0  0  0  0  0  0  0  0
   -2.1465    0.2096   -1.5560 H   0  0  0  0  0  0  0  0  0  0  0  0
   -2.4887   -1.4200    1.0020 H   0  0  0  0  0  0  0  0  0  0  0  0
   -1.0927   -1.4341   -0.0749 H   0  0  0  0  0  0  0  0  0  0  0  0
   -0.6829   -0.1301    1.9919 H   0  0  0  0  0  0  0  0  0  0  0  0
   -2.0418    0.9335    1.6040 H   0  0  0  0  0  0  0  0  0  0  0  0
    0.1438    1.9489    1.0436 H   0  0  0  0  0  0  0  0  0  0  0  0
   -0.8617    1.7573   -0.4098 H   0  0  0  0  0  0  0  0  0  0  0  0
    2.5617   -1.9225    0.6528 H   0  0  0  0  0  0  0  0  0  0  0  0
    3.5900   -0.4699    0.4957 H   0  0  0  0  0  0  0  0  0  0  0  0
    2.6427   -1.0458   -0.9084 H   0  0  0  0  0  0  0  0  0  0  0  0
  1  2  1  0  0  0  0
  2  3  1  0  0  0  0
  3  4  1  0  0  0  0
  4  5  1  0  0  0  0
  5  6  2  0  0  0  0
  5  7  1  0  0  0  0
  7  8  1  0  0  0  0
  1  9  1  0  0  0  0
  1 10  1  0  0  0  0
  1 11  1  0  0  0  0
  2 12  1  0  0  0  0
  2 13  1  0  0  0  0
  3 14  1  0  0  0  0
  3 15  1  0  0  0  0
  4 16  1  0  0  0  0
  4 17  1  0  0  0  0
  8 18  1  0  0  0  0
  8 19  1  0  0  0  0
  8 20  1  0  0  0  0
M  END
