 xtb: 6.7.1 (edcfbbe)
          04112512293D

 16 15  0     0  0            999 V2000
    2.0133   -0.6361   -0.1784 C   0  0  0  0  0  0  0  0  0  0  0  0
    1.1178    0.3173    0.6059 C   0  0  0  0  0  0  0  0  0  0  0  0
    0.0006    0.9325   -0.2404 C   0  0  0  0  0  0  0  0  0  0  0  0
   -1.0906   -0.0516   -0.6664 C   0  0  0  0  0  0  0  0  0  0  0  0
   -1.9431   -0.4082    0.4623 N   0  0  0  0  0  0  0  0  0  0  0  0
    2.4456   -0.1283   -1.0378 H   0  0  0  0  0  0  0  0  0  0  0  0
    2.8233   -0.9958    0.4518 H   0  0  0  0  0  0  0  0  0  0  0  0
    1.4559   -1.4984   -0.5359 H   0  0  0  0  0  0  0  0  0  0  0  0
    0.6873   -0.2047    1.4626 H   0  0  0  0  0  0  0  0  0  0  0  0
    1.7324    1.1301    0.9988 H   0  0  0  0  0  0  0  0  0  0  0  0
   -0.4791    1.7296    0.3292 H   0  0  0  0  0  0  0  0  0  0  0  0
    0.4397    1.3719   -1.1382 H   0  0  0  0  0  0  0  0  0  0  0  0
   -0.6310   -0.9278   -1.1525 H   0  0  0  0  0  0  0  0  0  0  0  0
   -1.7306    0.4362   -1.4076 H   0  0  0  0  0  0  0  0  0  0  0  0
   -1.3951   -0.8942    1.1643 H   0  0  0  0  0  0  0  0  0  0  0  0
   -2.6697   -1.0441    0.1540 H   0  0  0  0  0  0  0  0  0  0  0  0
  1  2  1  0  0  0  0
  2  3  1  0  0  0  0
  3  4  1  0  0  0  0
  4  5  1  0  0  0  0
  1  6  1  0  0  0  0
  1  7  1  0  0  0  0
  1  8  1  0  0  0  0
  2  9  1  0  0  0  0
  2 10  1  0  0  0  0
  3 11  1  0  0  0  0
  3 12  1  0  0  0  0
  4 13  1  0  0  0  0
  4 14  1  0  0  0  0
  5 15  1  0  0  0  0
  5 16  1  0  0  0  0
M  END
