16
 xtb: 6.7.1 (edcfbbe)
C            2.52525008563928       -0.39402860843001        0.01595495169099
C            1.27887814175326        0.47977720305410        0.12722940805000
C           -0.01415146980170       -0.32318595616671       -0.00467169752432
C           -1.25721889081846        0.54364028759152        0.12773967896889
N           -2.48573467258099       -0.26032062828330       -0.03458728158820
H            2.55868680006123       -0.90750144543373       -0.95158052357621
H            3.44047880096547        0.19927971632735        0.11162775342117
H            2.53868267182330       -1.15928654034564        0.80013836135419
H            1.28144717857262        1.00333306799566        1.09236262558096
H            1.30372450812990        1.25641693110056       -0.64808666584128
H           -0.02959589107662       -0.82846186002947       -0.98127584496945
H           -0.03720630453036       -1.11154104715624        0.75954053690076
H           -1.19234480631017        1.37052973838682       -0.59874176925457
H           -1.27592927717045        1.00085469879652        1.12452364687694
H           -2.49773417921853       -0.61799688194121       -0.98649070538311
H           -3.28602410676032        0.36312859354240        0.02066260083933
