 xtb: 6.7.1 (edcfbbe)
          04112515533D

 20 19  0     0  0            999 V2000
   -2.5711   -1.0125   -0.6395 C   0  0  0  0  0  0  0  0  0  0  0  0
   -2.0690   -0.5547    0.7244 C   0  0  0  0  0  0  0  0  0  0  0  0
   -1.3674    0.8079    0.6455 C   0  0  0  0  0  0  0  0  0  0  0  0
   -0.1111    0.7193   -0.1814 C   0  0  0  0  0  0  0  0  0  0  0  0
    0.0637    1.2754   -1.2473 O   0  0  0  0  0  0  0  0  0  0  0  0
    0.8023   -0.0494    0.3932 O   0  0  0  0  0  0  0  0  0  0  0  0
    2.0539   -0.2345   -0.2876 C   0  0  0  0  0  0  0  0  0  0  0  0
    3.0285   -0.8810    0.6778 C   0  0  0  0  0  0  0  0  0  0  0  0
   -3.2921   -0.3028   -1.0382 H   0  0  0  0  0  0  0  0  0  0  0  0
   -1.7479   -1.0879   -1.3478 H   0  0  0  0  0  0  0  0  0  0  0  0
   -3.0494   -1.9852   -0.5616 H   0  0  0  0  0  0  0  0  0  0  0  0
   -1.3698   -1.2883    1.1282 H   0  0  0  0  0  0  0  0  0  0  0  0
   -2.9113   -0.4704    1.4118 H   0  0  0  0  0  0  0  0  0  0  0  0
   -1.0876    1.1287    1.6491 H   0  0  0  0  0  0  0  0  0  0  0  0
   -2.0233    1.5498    0.1906 H   0  0  0  0  0  0  0  0  0  0  0  0
    1.8777   -0.8649   -1.1655 H   0  0  0  0  0  0  0  0  0  0  0  0
    2.4076    0.7421   -0.6346 H   0  0  0  0  0  0  0  0  0  0  0  0
    3.1786   -0.2400    1.5415 H   0  0  0  0  0  0  0  0  0  0  0  0
    2.6389   -1.8370    1.0144 H   0  0  0  0  0  0  0  0  0  0  0  0
    3.9788   -1.0367    0.1778 H   0  0  0  0  0  0  0  0  0  0  0  0
  1  2  1  0  0  0  0
  2  3  1  0  0  0  0
  3  4  1  0  0  0  0
  4  5  2  0  0  0  0
  4  6  1  0  0  0  0
  6  7  1  0  0  0  0
  7  8  1  0  0  0  0
  1  9  1  0  0  0  0
  1 10  1  0  0  0  0
  1 11  1  0  0  0  0
  2 12  1  0  0  0  0
  2 13  1  0  0  0  0
  3 14  1  0  0  0  0
  3 15  1  0  0  0  0
  7 16  1  0  0  0  0
  7 17  1  0  0  0  0
  8 18  1  0  0  0  0
  8 19  1  0  0  0  0
  8 20  1  0  0  0  0
M  END
