 xtb: 6.7.1 (edcfbbe)
          04112516443D

 20 19  0     0  0            999 V2000
   -3.2714   -1.1612    0.3272 C   0  0  0  0  0  0  0  0  0  0  0  0
   -1.7901   -0.9301    0.0527 C   0  0  0  0  0  0  0  0  0  0  0  0
   -1.4488    0.5575    0.1137 C   0  0  0  0  0  0  0  0  0  0  0  0
   -0.0018    0.8754   -0.1572 C   0  0  0  0  0  0  0  0  0  0  0  0
    0.3921    1.9617   -0.5383 O   0  0  0  0  0  0  0  0  0  0  0  0
    0.8117   -0.1406    0.0800 O   0  0  0  0  0  0  0  0  0  0  0  0
    2.2191    0.0727   -0.1220 C   0  0  0  0  0  0  0  0  0  0  0  0
    2.9522   -1.1950    0.2707 C   0  0  0  0  0  0  0  0  0  0  0  0
   -3.5041   -2.2210    0.2727 H   0  0  0  0  0  0  0  0  0  0  0  0
   -3.5370   -0.8006    1.3178 H   0  0  0  0  0  0  0  0  0  0  0  0
   -3.8819   -0.6368   -0.4040 H   0  0  0  0  0  0  0  0  0  0  0  0
   -1.5348   -1.3178   -0.9349 H   0  0  0  0  0  0  0  0  0  0  0  0
   -1.1900   -1.4685    0.7864 H   0  0  0  0  0  0  0  0  0  0  0  0
   -1.6726    0.9482    1.1103 H   0  0  0  0  0  0  0  0  0  0  0  0
   -2.0482    1.1291   -0.5973 H   0  0  0  0  0  0  0  0  0  0  0  0
    2.3817    0.3276   -1.1743 H   0  0  0  0  0  0  0  0  0  0  0  0
    2.5298    0.9289    0.4860 H   0  0  0  0  0  0  0  0  0  0  0  0
    4.0180   -1.0514    0.1272 H   0  0  0  0  0  0  0  0  0  0  0  0
    2.7593   -1.4289    1.3134 H   0  0  0  0  0  0  0  0  0  0  0  0
    2.6158   -2.0250   -0.3432 H   0  0  0  0  0  0  0  0  0  0  0  0
  1  2  1  0  0  0  0
  2  3  1  0  0  0  0
  3  4  1  0  0  0  0
  4  5  2  0  0  0  0
  4  6  1  0  0  0  0
  6  7  1  0  0  0  0
  7  8  1  0  0  0  0
  1  9  1  0  0  0  0
  1 10  1  0  0  0  0
  1 11  1  0  0  0  0
  2 12  1  0  0  0  0
  2 13  1  0  0  0  0
  3 14  1  0  0  0  0
  3 15  1  0  0  0  0
  7 16  1  0  0  0  0
  7 17  1  0  0  0  0
  8 18  1  0  0  0  0
  8 19  1  0  0  0  0
  8 20  1  0  0  0  0
M  END
