 xtb: 6.7.1 (edcfbbe)
          04112518223D

 33 35  0     0  0            999 V2000
   -4.5538   -1.0391    0.3134 C   0  0  0  0  0  0  0  0  0  0  0  0
   -3.8611   -2.2197    0.0832 C   0  0  0  0  0  0  0  0  0  0  0  0
   -2.4954   -2.1912   -0.1290 C   0  0  0  0  0  0  0  0  0  0  0  0
   -1.7963   -0.9859   -0.1110 C   0  0  0  0  0  0  0  0  0  0  0  0
   -2.4962    0.2028    0.1234 C   0  0  0  0  0  0  0  0  0  0  0  0
   -3.8738    0.1637    0.3320 C   0  0  0  0  0  0  0  0  0  0  0  0
   -1.7949    1.4918    0.1520 C   0  0  0  0  0  0  0  0  0  0  0  0
   -2.3986    2.5473    0.3373 O   0  0  0  0  0  0  0  0  0  0  0  0
   -0.3352    1.4592   -0.0422 C   0  0  0  0  0  0  0  0  0  0  0  0
    0.3325    2.6676    0.0522 C   0  0  0  0  0  0  0  0  0  0  0  0
    1.7141    2.7224   -0.1102 C   0  0  0  0  0  0  0  0  0  0  0  0
    2.4214    1.5798   -0.3669 C   0  0  0  0  0  0  0  0  0  0  0  0
    1.7858    0.3196   -0.4757 C   0  0  0  0  0  0  0  0  0  0  0  0
    0.3669    0.2581   -0.3046 C   0  0  0  0  0  0  0  0  0  0  0  0
   -0.3406   -1.0025   -0.3580 C   0  0  0  0  0  0  0  0  0  0  0  0
    0.2119   -2.0928   -0.5933 O   0  0  0  0  0  0  0  0  0  0  0  0
    2.4779   -0.7865   -0.7862 N   0  0  0  0  0  0  0  0  0  0  0  0
    3.9036   -0.9738   -0.7061 C   0  0  0  0  0  0  0  0  0  0  0  0
    4.3439   -1.3621    0.7193 C   0  0  0  0  0  0  0  0  0  0  0  0
    4.1660   -0.3260    1.6574 O   0  0  0  0  0  0  0  0  0  0  0  0
   -5.6197   -1.0583    0.4774 H   0  0  0  0  0  0  0  0  0  0  0  0
   -4.3870   -3.1614    0.0680 H   0  0  0  0  0  0  0  0  0  0  0  0
   -1.9394   -3.0985   -0.3134 H   0  0  0  0  0  0  0  0  0  0  0  0
   -4.3863    1.0980    0.5080 H   0  0  0  0  0  0  0  0  0  0  0  0
   -0.2440    3.5571    0.2546 H   0  0  0  0  0  0  0  0  0  0  0  0
    2.2235    3.6702   -0.0351 H   0  0  0  0  0  0  0  0  0  0  0  0
    3.4874    1.6436   -0.4993 H   0  0  0  0  0  0  0  0  0  0  0  0
    1.9197   -1.6396   -0.7832 H   0  0  0  0  0  0  0  0  0  0  0  0
    4.4283   -0.0742   -1.0291 H   0  0  0  0  0  0  0  0  0  0  0  0
    4.1672   -1.7903   -1.3796 H   0  0  0  0  0  0  0  0  0  0  0  0
    5.3881   -1.6936    0.6957 H   0  0  0  0  0  0  0  0  0  0  0  0
    3.7219   -2.1875    1.0745 H   0  0  0  0  0  0  0  0  0  0  0  0
    4.8283    0.3621    1.5058 H   0  0  0  0  0  0  0  0  0  0  0  0
  1  2  4  0  0  0  0
  2  3  4  0  0  0  0
  3  4  4  0  0  0  0
  4  5  4  0  0  0  0
  1  6  4  0  0  0  0
  5  6  4  0  0  0  0
  5  7  1  0  0  0  0
  7  8  2  0  0  0  0
  7  9  1  0  0  0  0
  9 10  4  0  0  0  0
 10 11  4  0  0  0  0
 11 12  2  0  0  0  0
 12 13  4  0  0  0  0
  9 14  4  0  0  0  0
 13 14  4  0  0  0  0
  4 15  1  0  0  0  0
 14 15  1  0  0  0  0
 15 16  2  0  0  0  0
 13 17  4  0  0  0  0
 17 18  1  0  0  0  0
 18 19  1  0  0  0  0
 19 20  1  0  0  0  0
  1 21  1  0  0  0  0
  2 22  1  0  0  0  0
  3 23  1  0  0  0  0
  6 24  1  0  0  0  0
 10 25  1  0  0  0  0
 11 26  1  0  0  0  0
 12 27  1  0  0  0  0
 17 28  1  0  0  0  0
 18 29  1  0  0  0  0
 18 30  1  0  0  0  0
 19 31  1  0  0  0  0
 19 32  1  0  0  0  0
 20 33  1  0  0  0  0
M  END
