 xtb: 6.7.1 (edcfbbe)
          04112517463D

 20 19  0     0  0            999 V2000
   -2.4593   -0.7960    1.0251 C   0  0  0  0  0  0  0  0  0  0  0  0
   -2.0561   -0.7755   -0.4442 C   0  0  0  0  0  0  0  0  0  0  0  0
   -1.4167    0.5615   -0.8385 C   0  0  0  0  0  0  0  0  0  0  0  0
   -0.1188    0.7865   -0.1069 C   0  0  0  0  0  0  0  0  0  0  0  0
    0.1049    1.7147    0.6447 O   0  0  0  0  0  0  0  0  0  0  0  0
    0.7747   -0.1527   -0.3801 O   0  0  0  0  0  0  0  0  0  0  0  0
    2.0597   -0.0587    0.2552 C   0  0  0  0  0  0  0  0  0  0  0  0
    2.9309   -1.1836   -0.2688 C   0  0  0  0  0  0  0  0  0  0  0  0
   -1.5929   -0.6340    1.6641 H   0  0  0  0  0  0  0  0  0  0  0  0
   -3.1816   -0.0102    1.2337 H   0  0  0  0  0  0  0  0  0  0  0  0
   -2.9044   -1.7529    1.2840 H   0  0  0  0  0  0  0  0  0  0  0  0
   -2.9383   -0.9341   -1.0652 H   0  0  0  0  0  0  0  0  0  0  0  0
   -1.3465   -1.5791   -0.6451 H   0  0  0  0  0  0  0  0  0  0  0  0
   -2.0842    1.3912   -0.6058 H   0  0  0  0  0  0  0  0  0  0  0  0
   -1.1996    0.5577   -1.9073 H   0  0  0  0  0  0  0  0  0  0  0  0
    2.4850    0.9253    0.0309 H   0  0  0  0  0  0  0  0  0  0  0  0
    1.9163   -0.1266    1.3388 H   0  0  0  0  0  0  0  0  0  0  0  0
    3.9103   -1.1245    0.1941 H   0  0  0  0  0  0  0  0  0  0  0  0
    2.4808   -2.1436   -0.0346 H   0  0  0  0  0  0  0  0  0  0  0  0
    3.0373   -1.0999   -1.3463 H   0  0  0  0  0  0  0  0  0  0  0  0
  1  2  1  0  0  0  0
  2  3  1  0  0  0  0
  3  4  1  0  0  0  0
  4  5  2  0  0  0  0
  4  6  1  0  0  0  0
  6  7  1  0  0  0  0
  7  8  1  0  0  0  0
  1  9  1  0  0  0  0
  1 10  1  0  0  0  0
  1 11  1  0  0  0  0
  2 12  1  0  0  0  0
  2 13  1  0  0  0  0
  3 14  1  0  0  0  0
  3 15  1  0  0  0  0
  7 16  1  0  0  0  0
  7 17  1  0  0  0  0
  8 18  1  0  0  0  0
  8 19  1  0  0  0  0
  8 20  1  0  0  0  0
M  END
