20
 xtb: 6.7.1 (edcfbbe)
C           -2.41316618743030       -0.81595216471343        1.03401824977365
C           -2.10739234563664       -0.75601679592029       -0.45865028917582
C           -1.42330393167254        0.55993822079775       -0.86618639336046
C           -0.13643082803999        0.78061853366778       -0.12281427768544
O            0.06867242924171        1.67801787127120        0.68040915436353
O            0.78428299047692       -0.15034782710606       -0.43111493558645
C            2.07111675222459       -0.05270596848194        0.26048908380871
C            2.93519237845559       -1.17659018128270       -0.25060802346495
H           -2.93815447030647       -1.74152888849025        1.28882960226210
H           -1.49444489796909       -0.78052303350979        1.63157425011132
H           -3.04381321802819        0.02612789534670        1.33981531307437
H           -3.03464576463355       -0.84034451609715       -1.03540963545956
H           -1.47293105860539       -1.60041896259649       -0.74829930594783
H           -2.07625842085346        1.40981769805167       -0.65285005362660
H           -1.20343593745601        0.54741217012246       -1.93928778851602
H            2.50360159168187        0.92866108553766        0.04420342986513
H            1.88824932691184       -0.13093888913555        1.33647093736700
H            3.90843800202648       -1.13319003209239        0.24714555287353
H            2.48343002731213       -2.14945925694378       -0.03682475831495
H            3.09717984699790       -1.08853459075762       -1.32874708230199
