16
 xtb: 6.7.1 (edcfbbe)
C            2.11960710275409       -0.27337702403937        0.59930267478343
C            1.37843047256050        0.45159888772660       -0.52333681195750
C           -0.05192010435630       -0.04607579593798       -0.75101127000944
C           -0.97906466774140        0.18690636023738        0.43334243123487
N           -2.36045221869965       -0.22393077623893        0.10330401996011
H            2.11700787637111       -1.35691951252421        0.43199069300153
H            3.16324852008644        0.05344283131013        0.65493094179133
H            1.66461925598187       -0.08571420321019        1.57682624954310
H            1.35548814925852        1.52902109152549       -0.31245614074617
H            1.94055523234947        0.33184814915381       -1.45724485946668
H           -0.47371319834987        0.45845929212382       -1.62972607147934
H           -0.02935558445538       -1.12095842206347       -0.98320978025380
H           -0.98723298519724        1.25627525391580        0.67971785835297
H           -0.58853279247750       -0.33990184650039        1.31722429930574
H           -2.93067118625129       -0.12238100457895        0.93795378760486
H           -2.34736875553150       -1.22371427192343       -0.08289597629491
