20
 xtb: 6.7.1 (edcfbbe)
C           -3.55404055180633       -0.63604837850263        0.44601656442456
C           -2.19072670930407        0.03749302177602        0.55221911616219
C           -1.21700720478556       -0.50002467908612       -0.51301327733843
C            0.10703053489461        0.19637290761024       -0.40738438497927
O            0.41413041785345        1.20374427942638       -1.02669780620202
O            0.90799317365668       -0.38989654572431        0.50383025922863
C            2.21517310451518        0.22425135200136        0.74121191408228
C            3.22209728029310       -0.24127059032928       -0.28513379428140
H           -3.46754587142008       -1.71881956578232        0.58724495914682
H           -4.24019824643622       -0.24988975678698        1.20618508412462
H           -4.00391532556764       -0.45883927014464       -0.53679531352782
H           -1.76433121940079       -0.13246612056953        1.54729543990413
H           -2.29590749802493        1.12135974865783        0.42596314211211
H           -1.62014547888115       -0.31243893609635       -1.51196492867250
H           -1.08208665601572       -1.57736603559911       -0.37805362697199
H            2.09904893307609        1.31093430844281        0.74400052375396
H            2.48380661894557       -0.11097637934402        1.74481983468565
H            2.94477126862491        0.08142283059178       -1.29221885965503
H            4.20048923845301        0.18682601180852       -0.04453014500599
H            3.31280593559922       -1.33132414089303       -0.27240824568110
