 xtb: 6.7.1 (edcfbbe)
          04112512313D

 22 21  0     0  0            999 V2000
    1.8384   -0.1369    1.1613 C   0  0  0  0  0  0  0  0  0  0  0  0
    1.3574   -0.3929   -0.2755 C   0  0  0  0  0  0  0  0  0  0  0  0
    1.7226    0.7840   -1.1821 C   0  0  0  0  0  0  0  0  0  0  0  0
   -0.0568   -0.7082   -0.4090 N   0  0  0  0  0  0  0  0  0  0  0  0
   -1.0435    0.2367    0.1041 C   0  0  0  0  0  0  0  0  0  0  0  0
   -1.6165   -0.1763    1.4638 C   0  0  0  0  0  0  0  0  0  0  0  0
   -2.1735    0.3634   -0.9225 C   0  0  0  0  0  0  0  0  0  0  0  0
    1.3769    0.7594    1.5697 H   0  0  0  0  0  0  0  0  0  0  0  0
    1.5930   -0.9816    1.8023 H   0  0  0  0  0  0  0  0  0  0  0  0
    2.9167   -0.0009    1.1701 H   0  0  0  0  0  0  0  0  0  0  0  0
    1.8830   -1.2790   -0.6539 H   0  0  0  0  0  0  0  0  0  0  0  0
    1.3063    1.7150   -0.8065 H   0  0  0  0  0  0  0  0  0  0  0  0
    1.3345    0.6087   -2.1812 H   0  0  0  0  0  0  0  0  0  0  0  0
    2.8027    0.8889   -1.2350 H   0  0  0  0  0  0  0  0  0  0  0  0
   -0.2480   -1.6323   -0.0415 H   0  0  0  0  0  0  0  0  0  0  0  0
   -0.5647    1.2155    0.2055 H   0  0  0  0  0  0  0  0  0  0  0  0
   -2.3338    0.5632    1.8111 H   0  0  0  0  0  0  0  0  0  0  0  0
   -2.1260   -1.1346    1.3763 H   0  0  0  0  0  0  0  0  0  0  0  0
   -0.8296   -0.2684    2.2086 H   0  0  0  0  0  0  0  0  0  0  0  0
   -1.7671    0.6671   -1.8825 H   0  0  0  0  0  0  0  0  0  0  0  0
   -2.9026    1.1005   -0.5965 H   0  0  0  0  0  0  0  0  0  0  0  0
   -2.6720   -0.5943   -1.0475 H   0  0  0  0  0  0  0  0  0  0  0  0
  1  2  1  0  0  0  0
  2  3  1  0  0  0  0
  2  4  1  0  0  0  0
  4  5  1  0  0  0  0
  5  6  1  0  0  0  0
  5  7  1  0  0  0  0
  1  8  1  0  0  0  0
  1  9  1  0  0  0  0
  1 10  1  0  0  0  0
  2 11  1  0  0  0  0
  3 12  1  0  0  0  0
  3 13  1  0  0  0  0
  3 14  1  0  0  0  0
  4 15  1  0  0  0  0
  5 16  1  0  0  0  0
  6 17  1  0  0  0  0
  6 18  1  0  0  0  0
  6 19  1  0  0  0  0
  7 20  1  0  0  0  0
  7 21  1  0  0  0  0
  7 22  1  0  0  0  0
M  END
