 xtb: 6.7.1 (edcfbbe)
          04112515543D

 31 32  0     0  0            999 V2000
   -3.5394   -1.1817   -1.3735 C   0  0  0  0  0  0  0  0  0  0  0  0
   -3.1368   -0.6486    0.0029 C   0  0  0  0  0  0  0  0  0  0  0  0
   -3.5611   -1.2942    0.7779 H   0  0  0  0  0  0  0  0  0  0  0  0
   -1.6272   -0.6250    0.1466 C   0  0  0  0  0  0  0  0  0  0  0  0
   -0.9849   -1.5734    0.9639 C   0  0  0  0  0  0  0  0  0  0  0  0
    0.3771   -1.5903    1.0788 C   0  0  0  0  0  0  0  0  0  0  0  0
    1.1741   -0.6563    0.3862 C   0  0  0  0  0  0  0  0  0  0  0  0
    2.5807   -0.6564    0.4931 C   0  0  0  0  0  0  0  0  0  0  0  0
    3.3284    0.2650   -0.1964 C   0  0  0  0  0  0  0  0  0  0  0  0
    2.6853    1.2216   -1.0180 C   0  0  0  0  0  0  0  0  0  0  0  0
    1.3291    1.2385   -1.1336 C   0  0  0  0  0  0  0  0  0  0  0  0
    0.5313    0.3025   -0.4379 C   0  0  0  0  0  0  0  0  0  0  0  0
   -0.8718    0.2928   -0.5396 C   0  0  0  0  0  0  0  0  0  0  0  0
    4.6876    0.3586   -0.1711 O   0  0  0  0  0  0  0  0  0  0  0  0
    5.4130   -0.5598    0.6241 C   0  0  0  0  0  0  0  0  0  0  0  0
   -3.6421    0.7685    0.2038 C   0  0  0  0  0  0  0  0  0  0  0  0
   -3.9256    1.5199   -0.6994 O   0  0  0  0  0  0  0  0  0  0  0  0
   -3.7297    1.1888    1.4653 O   0  0  0  0  0  0  0  0  0  0  0  0
   -3.1033   -2.1637   -1.5329 H   0  0  0  0  0  0  0  0  0  0  0  0
   -4.6216   -1.2525   -1.4481 H   0  0  0  0  0  0  0  0  0  0  0  0
   -3.1885   -0.5076   -2.1503 H   0  0  0  0  0  0  0  0  0  0  0  0
   -1.5790   -2.3013    1.4962 H   0  0  0  0  0  0  0  0  0  0  0  0
    0.8609   -2.3250    1.7049 H   0  0  0  0  0  0  0  0  0  0  0  0
    3.0407   -1.3975    1.1273 H   0  0  0  0  0  0  0  0  0  0  0  0
    3.3087    1.9282   -1.5428 H   0  0  0  0  0  0  0  0  0  0  0  0
    0.8428    1.9704   -1.7610 H   0  0  0  0  0  0  0  0  0  0  0  0
   -1.3520    1.0291   -1.1692 H   0  0  0  0  0  0  0  0  0  0  0  0
    5.1452   -0.4631    1.6794 H   0  0  0  0  0  0  0  0  0  0  0  0
    6.4589   -0.2962    0.4854 H   0  0  0  0  0  0  0  0  0  0  0  0
    5.2443   -1.5870    0.2909 H   0  0  0  0  0  0  0  0  0  0  0  0
   -3.4882    0.5186    2.1294 H   0  0  0  0  0  0  0  0  0  0  0  0
  1  2  1  0  0  0  0
  2  3  1  0  0  0  0
  2  4  1  0  0  0  0
  4  5  4  0  0  0  0
  5  6  2  0  0  0  0
  6  7  4  0  0  0  0
  7  8  4  0  0  0  0
  8  9  4  0  0  0  0
  9 10  4  0  0  0  0
 10 11  2  0  0  0  0
  7 12  4  0  0  0  0
 11 12  4  0  0  0  0
  4 13  2  0  0  0  0
 12 13  4  0  0  0  0
  9 14  1  0  0  0  0
 14 15  1  0  0  0  0
  2 16  1  0  0  0  0
 16 17  2  0  0  0  0
 16 18  1  0  0  0  0
  1 19  1  0  0  0  0
  1 20  1  0  0  0  0
  1 21  1  0  0  0  0
  5 22  1  0  0  0  0
  6 23  1  0  0  0  0
  8 24  1  0  0  0  0
 10 25  1  0  0  0  0
 11 26  1  0  0  0  0
 13 27  1  0  0  0  0
 15 28  1  0  0  0  0
 15 29  1  0  0  0  0
 15 30  1  0  0  0  0
 18 31  1  0  0  0  0
M  END
