21
CONF5
C 1.7363721833 0.7133194664 -1.1358549826
C 1.4323919026 -0.5231740664 -0.3030398476
C 2.6221595686 -0.9233013156 0.5612603174
S -0.0131230852 -0.2853017489 0.8385900850
C -1.4118030182 0.0065428296 -0.3544253112
C -2.6221903725 -0.8095233276 0.0866442647
C -1.7541316094 1.4878346163 -0.4664557833
H 0.8999713917 0.9878825726 -1.7842998733
H 1.9741578579 1.5674190041 -0.4929544082
H 2.6027667971 0.5135408457 -1.7783889904
H 1.1688217268 -1.3563728416 -0.9653494566
H 2.4198284170 -1.8314106905 1.1368180462
H 2.8872970953 -0.1213653032 1.2589967385
H 3.4900749853 -1.1111726480 -0.0799194638
H -1.0545656781 -0.3681176625 -1.3207259580
H -3.4575840507 -0.6324799874 -0.6006682069
H -2.4031236383 -1.8804072633 0.0967899123
H -2.9490062558 -0.5145335439 1.0900397755
H -2.1191282994 1.8714802724 0.4923004575
H -2.5458748380 1.6317974801 -1.2117854812
H -0.8887326075 2.0840554399 -0.7653617188
21
CONF4
C 2.4197959168 1.0817835567 0.7437593558
C 1.3682276599 0.4827208244 -0.1841521451
C 1.9857860341 -0.5352334314 -1.1366047408
S 0.0090776489 -0.2736679820 0.8390416510
C -1.5140936871 0.3468663189 -0.0237926311
C -1.6248839922 -0.1565158578 -1.4554340861
C -2.7114154256 -0.0815741186 0.8162179648
H 1.9967079939 1.8662216744 1.3766339414
H 2.8556616740 0.3126971230 1.3913660820
H 3.2319688231 1.5154300862 0.1488485058
H 0.8895219630 1.2861727042 -0.7559511122
H 1.2388208211 -0.9754526426 -1.8020559205
H 2.4647525499 -1.3453872804 -0.5762924407
H 2.7530113659 -0.0500669824 -1.7526273606
H -1.4442740063 1.4412080406 -0.0238012707
H -2.5417099375 0.2385107451 -1.9104515548
H -0.7826633399 0.1707567425 -2.0706034168
H -1.6712112739 -1.2504817190 -1.4817330350
H -3.6300459972 0.3073811688 0.3642480663
H -2.6471283877 0.2993818546 1.8396761846
H -2.7926853811 -1.1733191694 0.8559997440
21
CONF3
C 2.5377806194 0.8875552116 -0.7647824158
C 1.4035751263 -0.1015536173 -0.5199259462
C 1.8614643758 -1.2734062695 0.3372328078
S 0.0113136095 0.8352194921 0.2715840403
C -1.4177364678 -0.3317306463 0.0732056396
C -2.5289022434 0.1453820544 1.0015670379
C -1.8938502786 -0.4104407392 -1.3707883927
H 2.2301246798 1.7000064226 -1.4285002405
H 2.8897887854 1.3224351890 0.1771148322
H 3.3827821868 0.3662457471 -1.2278606762
H 1.0333878262 -0.4684227971 -1.4832387876
H 1.0495843631 -1.9766747512 0.5428391264
H 2.2623572806 -0.9187000185 1.2922801891
H 2.6543268235 -1.8237391308 -0.1840976581
H -1.0728624634 -1.3173877259 0.4038158361
H -2.8603728616 1.1538266420 0.7310763486
H -3.3908094214 -0.5243631454 0.9116071885
H -2.2082040247 0.1541869298 2.0467351061
H -2.7146725358 -1.1341903534 -1.4486108056
H -1.0999754903 -0.7344550650 -2.0494126974
H -2.2624604306 0.5637017706 -1.7087121059
21
CONF2
C 1.8685158770 1.2935455020 0.5653538220
C 1.4121518538 0.1960637888 -0.3862106534
C 2.5429840467 -0.7767483490 -0.7001672481
S 0.0032969885 -0.7863086342 0.3158198875
C -1.4151624720 0.3981858670 0.1515428131
C -1.8732254797 0.5383962593 -1.2936818136
C -2.5414630055 -0.1029759536 1.0484013406
H 2.6674635509 1.8799783003 0.0955582921
H 1.0572217793 1.9811023932 0.8201621339
H 2.2595959165 0.8619808306 1.4924763798
H 1.0518901287 0.6409067795 -1.3202412340
H 2.8829799545 -1.2899752679 0.2061587697
H 3.3955839881 -0.2246220852 -1.1102444252
H 2.2372565991 -1.5301206841 -1.4314967389
H -1.0634228421 1.3663727631 0.5243830961
H -1.0651753009 0.8718063336 -1.9505541761
H -2.2550960200 -0.4154964778 -1.6716438984
H -2.6792820769 1.2796397694 -1.3545557395
H -3.3994392218 0.5733562424 0.9689333439
H -2.2347509244 -0.1475498844 2.0971515729
H -2.8741037356 -1.1006590970 0.7412493209
21
CONF1
C 2.0360292785 1.2796270214 -0.3615262749
C 1.2020505107 0.0043789506 -0.3866061737
C 2.0741293332 -1.2453406293 -0.3827131833
S 0.0267425052 -0.0296651250 1.0595854183
C -1.6390750292 -0.0044294073 0.2358207984
C -1.8718401737 1.2768980325 -0.5550254811
C -1.8858060410 -1.2528731308 -0.6021633470
H 1.4038753223 2.1704670720 -0.4131884650
H 2.6363056551 1.3373158508 0.5530889589
H 2.7231589264 1.2921299261 -1.2161815379
H 0.5755614739 0.0022171599 -1.2841194925
H 2.6712727207 -1.3041916043 0.5339236857
H 2.7660123083 -1.2195389012 -1.2331829373
H 1.4689804190 -2.1532141314 -0.4565786120
H -2.3159995440 -0.0171001337 1.0990149829
H -1.1897332263 1.3484680050 -1.4089067836
H -2.8949357934 1.2844875230 -0.9494592504
H -1.7368201215 2.1631743314 0.0705730618
H -1.7610183611 -2.1630411437 -0.0096052315
H -1.2042655782 -1.3012211339 -1.4582137549
H -2.9088530684 -1.2346442451 -0.9965550334
