 xtb: 6.7.1 (edcfbbe)
          04112515533D

 20 19  0     0  0            999 V2000
   -2.6112   -0.2098    1.2461 C   0  0  0  0  0  0  0  0  0  0  0  0
   -2.5249    0.0725   -0.2490 C   0  0  0  0  0  0  0  0  0  0  0  0
   -1.2514   -0.5189   -0.8616 C   0  0  0  0  0  0  0  0  0  0  0  0
   -0.0258    0.1809   -0.3321 C   0  0  0  0  0  0  0  0  0  0  0  0
    0.1477    1.3818   -0.3482 O   0  0  0  0  0  0  0  0  0  0  0  0
    0.8487   -0.6823    0.1702 O   0  0  0  0  0  0  0  0  0  0  0  0
    2.0904   -0.1805    0.6921 C   0  0  0  0  0  0  0  0  0  0  0  0
    3.1433   -0.0851   -0.4014 C   0  0  0  0  0  0  0  0  0  0  0  0
   -3.5310    0.1981    1.6565 H   0  0  0  0  0  0  0  0  0  0  0  0
   -2.5918   -1.2805    1.4348 H   0  0  0  0  0  0  0  0  0  0  0  0
   -1.7719    0.2466    1.7680 H   0  0  0  0  0  0  0  0  0  0  0  0
   -2.5256    1.1507   -0.4197 H   0  0  0  0  0  0  0  0  0  0  0  0
   -3.3907   -0.3566   -0.7539 H   0  0  0  0  0  0  0  0  0  0  0  0
   -1.2676   -0.3727   -1.9430 H   0  0  0  0  0  0  0  0  0  0  0  0
   -1.1672   -1.5825   -0.6422 H   0  0  0  0  0  0  0  0  0  0  0  0
    1.9093    0.8015    1.1401 H   0  0  0  0  0  0  0  0  0  0  0  0
    2.3785   -0.9001    1.4591 H   0  0  0  0  0  0  0  0  0  0  0  0
    4.0861    0.2301    0.0334 H   0  0  0  0  0  0  0  0  0  0  0  0
    3.2732   -1.0517   -0.8804 H   0  0  0  0  0  0  0  0  0  0  0  0
    2.8383    0.6434   -1.1495 H   0  0  0  0  0  0  0  0  0  0  0  0
  1  2  1  0  0  0  0
  2  3  1  0  0  0  0
  3  4  1  0  0  0  0
  4  5  2  0  0  0  0
  4  6  1  0  0  0  0
  6  7  1  0  0  0  0
  7  8  1  0  0  0  0
  1  9  1  0  0  0  0
  1 10  1  0  0  0  0
  1 11  1  0  0  0  0
  2 12  1  0  0  0  0
  2 13  1  0  0  0  0
  3 14  1  0  0  0  0
  3 15  1  0  0  0  0
  7 16  1  0  0  0  0
  7 17  1  0  0  0  0
  8 18  1  0  0  0  0
  8 19  1  0  0  0  0
  8 20  1  0  0  0  0
M  END
