20
 xtb: 6.7.1 (edcfbbe)
C           -3.50312361821151       -0.94869215967265        0.32701615490794
C           -2.18207978905715       -0.26581852840582        0.66113408687473
C           -1.29241655687607       -0.12486405568964       -0.58633664151261
C           -0.00391005621898        0.55519378798835       -0.23062749762192
O            0.09393882824437        1.73827589793237        0.05988761076481
O            1.04256916253200       -0.29079786380148       -0.22618086777309
C            2.33392700748740        0.27304988735379        0.16971102045348
C            3.34058590883488       -0.84829066794991        0.13161644553522
H           -4.12971164264987       -1.04323335430111        1.21926307992836
H           -4.06238789079149       -0.37535878299754       -0.42017575459601
H           -3.33544340280229       -1.95343189864681       -0.07529699328730
H           -1.64309511799067       -0.84281680697798        1.42195948951953
H           -2.36714384590703        0.72900450561243        1.08114964541709
H           -1.80336995728905        0.49471288994393       -1.33113466965167
H           -1.09327094873942       -1.10736539395789       -1.02151166548613
H            2.58724184622787        1.07565706690713       -0.52935556678273
H            2.23001642144810        0.69610364498105        1.17330526793016
H            3.42419679749084       -1.26907428932641       -0.87440974021149
H            4.31985009906691       -0.45670971071488        0.42222686535302
H            3.06873889520632       -1.64519980332714        0.82960332548817
