 xtb: 6.7.1 (edcfbbe)
          04112515533D

 20 19  0     0  0            999 V2000
   -3.3284   -1.0989    0.2641 C   0  0  0  0  0  0  0  0  0  0  0  0
   -1.9456   -0.7413   -0.2653 C   0  0  0  0  0  0  0  0  0  0  0  0
   -1.3522    0.4534    0.4964 C   0  0  0  0  0  0  0  0  0  0  0  0
   -0.0011    0.7874   -0.0751 C   0  0  0  0  0  0  0  0  0  0  0  0
    0.2105    1.6529   -0.9010 O   0  0  0  0  0  0  0  0  0  0  0  0
    0.9423   -0.0104    0.4021 O   0  0  0  0  0  0  0  0  0  0  0  0
    2.2816    0.1400   -0.0994 C   0  0  0  0  0  0  0  0  0  0  0  0
    3.0504   -1.1322    0.2026 C   0  0  0  0  0  0  0  0  0  0  0  0
   -4.0093   -0.2595    0.1493 H   0  0  0  0  0  0  0  0  0  0  0  0
   -3.7304   -1.9466   -0.2838 H   0  0  0  0  0  0  0  0  0  0  0  0
   -3.2764   -1.3603    1.3176 H   0  0  0  0  0  0  0  0  0  0  0  0
   -2.0090   -0.4905   -1.3263 H   0  0  0  0  0  0  0  0  0  0  0  0
   -1.2762   -1.5966   -0.1582 H   0  0  0  0  0  0  0  0  0  0  0  0
   -1.2394    0.1946    1.5485 H   0  0  0  0  0  0  0  0  0  0  0  0
   -2.0009    1.3222    0.3892 H   0  0  0  0  0  0  0  0  0  0  0  0
    2.2292    0.3437   -1.1739 H   0  0  0  0  0  0  0  0  0  0  0  0
    2.7323    1.0072    0.3938 H   0  0  0  0  0  0  0  0  0  0  0  0
    3.0532   -1.3176    1.2724 H   0  0  0  0  0  0  0  0  0  0  0  0
    2.5886   -1.9778   -0.2987 H   0  0  0  0  0  0  0  0  0  0  0  0
    4.0722   -1.0249   -0.1462 H   0  0  0  0  0  0  0  0  0  0  0  0
  1  2  1  0  0  0  0
  2  3  1  0  0  0  0
  3  4  1  0  0  0  0
  4  5  2  0  0  0  0
  4  6  1  0  0  0  0
  6  7  1  0  0  0  0
  7  8  1  0  0  0  0
  1  9  1  0  0  0  0
  1 10  1  0  0  0  0
  1 11  1  0  0  0  0
  2 12  1  0  0  0  0
  2 13  1  0  0  0  0
  3 14  1  0  0  0  0
  3 15  1  0  0  0  0
  7 16  1  0  0  0  0
  7 17  1  0  0  0  0
  8 18  1  0  0  0  0
  8 19  1  0  0  0  0
  8 20  1  0  0  0  0
M  END
