 xtb: 6.7.1 (edcfbbe)
          04112512333D

 13 13  0     0  0            999 V2000
   -2.0233   -0.8126   -0.4400 C   0  0  0  0  0  0  0  0  0  0  0  0
   -1.5213    0.2474    0.5347 C   0  0  0  0  0  0  0  0  0  0  0  0
   -0.2849    0.9631    0.0065 C   0  0  0  0  0  0  0  0  0  0  0  0
    0.8981    0.1050   -0.0164 N   0  0  0  0  0  0  0  0  0  0  0  0
    1.7863    0.4077   -0.7914 O   0  0  0  0  0  0  0  0  0  0  0  0
    0.9595   -0.8417    0.7372 O   0  0  0  0  0  0  0  0  0  0  0  0
   -2.9254   -1.2781   -0.0542 H   0  0  0  0  0  0  0  0  0  0  0  0
   -2.2511   -0.3710   -1.4071 H   0  0  0  0  0  0  0  0  0  0  0  0
   -1.2770   -1.5919   -0.5796 H   0  0  0  0  0  0  0  0  0  0  0  0
   -1.2856   -0.2189    1.4920 H   0  0  0  0  0  0  0  0  0  0  0  0
   -2.2992    0.9923    0.6980 H   0  0  0  0  0  0  0  0  0  0  0  0
   -0.4238    1.3396   -1.0089 H   0  0  0  0  0  0  0  0  0  0  0  0
   -0.0283    1.8091    0.6515 H   0  0  0  0  0  0  0  0  0  0  0  0
  1  2  1  0  0  0  0
  2  3  1  0  0  0  0
  3  4  1  0  0  0  0
  4  5  4  0  0  0  0
  4  6  4  0  0  0  0
  5  6  1  0  0  0  0
  1  7  1  0  0  0  0
  1  8  1  0  0  0  0
  1  9  1  0  0  0  0
  2 10  1  0  0  0  0
  2 11  1  0  0  0  0
  3 12  1  0  0  0  0
  3 13  1  0  0  0  0
M  END
