 xtb: 6.7.1 (edcfbbe)
          04112512293D

 21 20  0     0  0            999 V2000
    1.9217    1.1787    0.8110 C   0  0  0  0  0  0  0  0  0  0  0  0
    1.4117    0.2856   -0.3076 C   0  0  0  0  0  0  0  0  0  0  0  0
    2.4927   -0.6444   -0.8336 C   0  0  0  0  0  0  0  0  0  0  0  0
    0.0030   -0.7463    0.2969 S   0  0  0  0  0  0  0  0  0  0  0  0
   -1.4146    0.4090    0.0317 C   0  0  0  0  0  0  0  0  0  0  0  0
   -1.9270    0.2871   -1.3937 C   0  0  0  0  0  0  0  0  0  0  0  0
   -2.4909    0.0856    1.0549 C   0  0  0  0  0  0  0  0  0  0  0  0
    2.7246    1.8138    0.4426 H   0  0  0  0  0  0  0  0  0  0  0  0
    1.1271    1.8143    1.1963 H   0  0  0  0  0  0  0  0  0  0  0  0
    2.3008    0.5696    1.6284 H   0  0  0  0  0  0  0  0  0  0  0  0
    1.0064    0.8875   -1.1248 H   0  0  0  0  0  0  0  0  0  0  0  0
    2.8593   -1.2822   -0.0324 H   0  0  0  0  0  0  0  0  0  0  0  0
    3.3226   -0.0627   -1.2281 H   0  0  0  0  0  0  0  0  0  0  0  0
    2.0979   -1.2786   -1.6236 H   0  0  0  0  0  0  0  0  0  0  0  0
   -1.0162    1.4104    0.2120 H   0  0  0  0  0  0  0  0  0  0  0  0
   -1.1355    0.4909   -2.1120 H   0  0  0  0  0  0  0  0  0  0  0  0
   -2.2991   -0.7197   -1.5693 H   0  0  0  0  0  0  0  0  0  0  0  0
   -2.7356    0.9958   -1.5597 H   0  0  0  0  0  0  0  0  0  0  0  0
   -3.3264    0.7730    0.9441 H   0  0  0  0  0  0  0  0  0  0  0  0
   -2.0946    0.1701    2.0638 H   0  0  0  0  0  0  0  0  0  0  0  0
   -2.8500   -0.9310    0.9112 H   0  0  0  0  0  0  0  0  0  0  0  0
  1  2  1  0  0  0  0
  2  3  1  0  0  0  0
  2  4  1  0  0  0  0
  4  5  1  0  0  0  0
  5  6  1  0  0  0  0
  5  7  1  0  0  0  0
  1  8  1  0  0  0  0
  1  9  1  0  0  0  0
  1 10  1  0  0  0  0
  2 11  1  0  0  0  0
  3 12  1  0  0  0  0
  3 13  1  0  0  0  0
  3 14  1  0  0  0  0
  5 15  1  0  0  0  0
  6 16  1  0  0  0  0
  6 17  1  0  0  0  0
  6 18  1  0  0  0  0
  7 19  1  0  0  0  0
  7 20  1  0  0  0  0
  7 21  1  0  0  0  0
M  END
