16
 xtb: 6.7.1 (edcfbbe)
C            1.90494875137817       -0.73371515267909       -0.15546562322257
C            1.12937555621795        0.31718531484033        0.63556126612022
C            0.01654649489275        0.99460301216143       -0.17072222843961
C           -1.07193586905697        0.06646830175940       -0.69875430897626
N           -1.79656579109547       -0.60538764940688        0.39900088226244
H            2.74703741088784       -1.12090420211707        0.42741911394893
H            1.27494556524298       -1.58708661328619       -0.42590819075483
H            2.30703603159313       -0.30951543447276       -1.08290913539867
H            0.71008719017742       -0.13960582773926        1.53919571269679
H            1.82447797126269        1.09352919290528        0.97861949079093
H           -0.45508390614658        1.77258898744653        0.44622861996870
H            0.46404917852229        1.51070746302551       -1.03089228534431
H           -0.62727307809151       -0.70496274450968       -1.33823969855968
H           -1.74171687516263        0.65721665836616       -1.34456734882163
H           -2.54891326188434       -1.15560261724232       -0.00429230219836
H           -2.25907864978514        0.11263094075643        0.95089163064474
