 xtb: 6.7.1 (edcfbbe)
          04112516443D

 20 19  0     0  0            999 V2000
   -3.6619   -0.4182    0.3931 C   0  0  0  0  0  0  0  0  0  0  0  0
   -2.3768    0.2033   -0.1382 C   0  0  0  0  0  0  0  0  0  0  0  0
   -1.1511   -0.6000    0.2874 C   0  0  0  0  0  0  0  0  0  0  0  0
    0.1299   -0.0157   -0.2469 C   0  0  0  0  0  0  0  0  0  0  0  0
    0.2093    0.9396   -0.9893 O   0  0  0  0  0  0  0  0  0  0  0  0
    1.1857   -0.6963    0.1913 O   0  0  0  0  0  0  0  0  0  0  0  0
    2.4948   -0.2641   -0.2168 C   0  0  0  0  0  0  0  0  0  0  0  0
    3.0281    0.8212    0.7058 C   0  0  0  0  0  0  0  0  0  0  0  0
   -3.7811   -1.4300    0.0139 H   0  0  0  0  0  0  0  0  0  0  0  0
   -3.6460   -0.4563    1.4794 H   0  0  0  0  0  0  0  0  0  0  0  0
   -4.5209    0.1694    0.0817 H   0  0  0  0  0  0  0  0  0  0  0  0
   -2.2772    1.2266    0.2285 H   0  0  0  0  0  0  0  0  0  0  0  0
   -2.4075    0.2536   -1.2282 H   0  0  0  0  0  0  0  0  0  0  0  0
   -1.2201   -1.6284   -0.0735 H   0  0  0  0  0  0  0  0  0  0  0  0
   -1.0713   -0.6441    1.3751 H   0  0  0  0  0  0  0  0  0  0  0  0
    3.1081   -1.1643   -0.1675 H   0  0  0  0  0  0  0  0  0  0  0  0
    2.4363    0.1011   -1.2467 H   0  0  0  0  0  0  0  0  0  0  0  0
    3.0316    0.4699    1.7341 H   0  0  0  0  0  0  0  0  0  0  0  0
    4.0401    1.0787    0.4108 H   0  0  0  0  0  0  0  0  0  0  0  0
    2.4034    1.7089    0.6360 H   0  0  0  0  0  0  0  0  0  0  0  0
  1  2  1  0  0  0  0
  2  3  1  0  0  0  0
  3  4  1  0  0  0  0
  4  5  2  0  0  0  0
  4  6  1  0  0  0  0
  6  7  1  0  0  0  0
  7  8  1  0  0  0  0
  1  9  1  0  0  0  0
  1 10  1  0  0  0  0
  1 11  1  0  0  0  0
  2 12  1  0  0  0  0
  2 13  1  0  0  0  0
  3 14  1  0  0  0  0
  3 15  1  0  0  0  0
  7 16  1  0  0  0  0
  7 17  1  0  0  0  0
  8 18  1  0  0  0  0
  8 19  1  0  0  0  0
  8 20  1  0  0  0  0
M  END
