 xtb: 6.7.1 (edcfbbe)
          04112515593D

 17 16  0     0  0            999 V2000
    2.1435   -0.8643    0.6001 C   0  0  0  0  0  0  0  0  0  0  0  0
    1.6935   -0.1301   -0.6579 C   0  0  0  0  0  0  0  0  0  0  0  0
    1.1798    1.2827   -0.3769 C   0  0  0  0  0  0  0  0  0  0  0  0
   -0.0807    1.3645    0.4875 C   0  0  0  0  0  0  0  0  0  0  0  0
   -1.3340    0.8048   -0.1681 C   0  0  0  0  0  0  0  0  0  0  0  0
   -1.4876   -0.9796    0.0336 Cl  0  0  0  0  0  0  0  0  0  0  0  0
    2.8637   -0.2667    1.1548 H   0  0  0  0  0  0  0  0  0  0  0  0
    2.6112   -1.8100    0.3363 H   0  0  0  0  0  0  0  0  0  0  0  0
    1.2979   -1.0803    1.2482 H   0  0  0  0  0  0  0  0  0  0  0  0
    2.5415   -0.0511   -1.3424 H   0  0  0  0  0  0  0  0  0  0  0  0
    0.9218   -0.7143   -1.1604 H   0  0  0  0  0  0  0  0  0  0  0  0
    0.9801    1.7772   -1.3302 H   0  0  0  0  0  0  0  0  0  0  0  0
    1.9701    1.8436    0.1268 H   0  0  0  0  0  0  0  0  0  0  0  0
   -0.2766    2.4194    0.6921 H   0  0  0  0  0  0  0  0  0  0  0  0
    0.0846    0.8704    1.4447 H   0  0  0  0  0  0  0  0  0  0  0  0
   -2.2319    1.2159    0.2894 H   0  0  0  0  0  0  0  0  0  0  0  0
   -1.3428    0.9899   -1.2408 H   0  0  0  0  0  0  0  0  0  0  0  0
  1  2  1  0  0  0  0
  2  3  1  0  0  0  0
  3  4  1  0  0  0  0
  4  5  1  0  0  0  0
  5  6  1  0  0  0  0
  1  7  1  0  0  0  0
  1  8  1  0  0  0  0
  1  9  1  0  0  0  0
  2 10  1  0  0  0  0
  2 11  1  0  0  0  0
  3 12  1  0  0  0  0
  3 13  1  0  0  0  0
  4 14  1  0  0  0  0
  4 15  1  0  0  0  0
  5 16  1  0  0  0  0
  5 17  1  0  0  0  0
M  END
