20
 xtb: 6.7.1 (edcfbbe)
C           -2.60257377463369       -1.03542261561284       -0.44789219865665
C           -2.24053275138962       -0.22529319818310        0.79282398345126
C           -1.31907867711021        0.96403040342907        0.47303885108550
C           -0.05014723561571        0.52339369127849       -0.20138573306393
O            0.26445457105859        0.79702673863089       -1.34929678292004
O            0.70159408368590       -0.24385483714017        0.61104238260965
C            1.95230487542441       -0.77305697334286        0.06602863123643
C            3.06646681716903        0.24195295213898        0.17863978270074
H           -3.29555612280058       -1.84417333478086       -0.19724888722590
H           -3.07954823162917       -0.40330440101517       -1.20509787029547
H           -1.71410732565329       -1.48979658205864       -0.90217190046002
H           -1.75798444018069       -0.86899093594868        1.53564765762948
H           -3.14854632423111        0.17358438901845        1.25711927065268
H           -1.05682583977213        1.48946183932740        1.39781353544597
H           -1.82097337292970        1.66542937586676       -0.19783548572075
H            2.15235904607852       -1.65417969533058        0.67850837574984
H            1.78057348705123       -1.08382978238636       -0.96754296170867
H            3.20563541911153        0.55202364736075        1.21834689161109
H            3.99831166029505       -0.21431810480142       -0.17019466409116
H            2.86696763133766        1.12539531536045       -0.43349606881021
