13
CONF2
C 2.3208333414 0.3018993210 -0.0031755898
C 1.1626520269 -0.1960339664 0.3867825641
C -0.0000747795 -0.4596858722 -0.5236813793
C -1.1616417892 0.4092472578 -0.1413026208
C -2.3217064395 -0.0419295862 0.2969554462
H 3.1262612939 0.4824538005 0.6881024332
H 2.5147346683 0.5441511006 -1.0354528332
H 0.9879021438 -0.4278674104 1.4293953555
H -0.2911279295 -1.5099174150 -0.4479393870
H 0.2900031907 -0.2462534037 -1.5551060773
H -0.9842087943 1.4732770515 -0.2293788181
H -3.1261164744 0.6203790750 0.5678957002
H -2.5181911884 -1.0970564106 0.3968494079
13
CONF3
C 1.7520573935 0.6699888373 0.4136684011
C 1.3696847127 -0.3829466201 -0.2842801279
C -0.0514606537 -0.8210373439 -0.4937832742
C -1.0317410600 -0.1312757993 0.4003023256
C -2.0173475928 0.6378370061 -0.0221989376
H 2.7906768484 0.9339281481 0.5175197288
H 1.0430303065 1.3136238185 0.9071966114
H 2.1078477013 -1.0028491394 -0.7772377410
H -0.1044165001 -1.8999223824 -0.3146742735
H -0.3169010879 -0.6506477310 -1.5413875566
H -0.8877958727 -0.3036153720 1.4591911656
H -2.7062262588 1.1103243880 0.6571716658
H -2.1787509325 0.8260639612 -1.0711302904
13
CONF1
C 2.1667270820 0.5665197819 0.0556560212
C 1.2318371064 -0.3428666038 0.2545985320
C 0.0000103040 -0.4896864617 -0.5871716175
C -1.2315821650 -0.3425599950 0.2549174188
C -2.1669528998 0.5662421759 0.0555601383
H 3.0355751724 0.6394814178 0.6871931115
H 2.1041854674 1.2753917595 -0.7536104297
H 1.3150312660 -1.0418547279 1.0768604547
H -0.0001923888 -1.4904607321 -1.0318393122
H 0.0000352329 0.2494068783 -1.3890953893
H -1.3143719542 -1.0411081001 1.0775982769
H -3.0357270739 0.6392420130 0.6872081841
H -2.1050055459 1.2745620180 -0.7542255204
