20
 xtb: 6.7.1 (edcfbbe)
C           -3.64916356685538       -0.62903285550841        0.24590862823476
C           -2.35194378724922       -0.19273817891193       -0.42799393460988
C           -1.19114018157254       -0.17721265033031        0.55866328595134
C            0.11523537398174        0.24568942059648       -0.05130975077019
O            0.26603102613200        0.63260481355645       -1.19813701736705
O            1.12141210774417        0.15976896332048        0.84321618575688
C            2.45865554614761        0.53582585350047        0.38258606498137
C            3.12150292402511       -0.60750527326795       -0.35094469054877
H           -3.91756727537740        0.05258218683198        1.06052619828292
H           -4.47796691969602       -0.64232470298547       -0.46839892086659
H           -3.55351429924595       -1.63499820836974        0.66912208469330
H           -2.47355156884346        0.80587084485003       -0.86197823573331
H           -2.11468214774335       -0.87044872525826       -1.25598979289529
H           -1.04469071185115       -1.16538568962898        1.01184460695229
H           -1.39637789286153        0.50657513356271        1.39299838115979
H            2.37898469548684        1.43257525568101       -0.23690324463521
H            2.99234958087720        0.78203288004527        1.30244577333280
H            4.13861900553652       -0.31137082677534       -0.62676465044116
H            3.18397623921843       -1.49388682249946        0.28700283424673
H            2.57934311672514       -0.86414424921321       -1.26496924605900
