 xtb: 6.7.1 (edcfbbe)
          04112515533D

 20 19  0     0  0            999 V2000
   -2.3257   -1.3887    0.3921 C   0  0  0  0  0  0  0  0  0  0  0  0
   -2.5131    0.0503   -0.0732 C   0  0  0  0  0  0  0  0  0  0  0  0
   -1.3104    0.5413   -0.8824 C   0  0  0  0  0  0  0  0  0  0  0  0
   -0.0789    0.6552   -0.0197 C   0  0  0  0  0  0  0  0  0  0  0  0
   -0.0516    1.1473    1.0896 O   0  0  0  0  0  0  0  0  0  0  0  0
    0.9855    0.1570   -0.6337 O   0  0  0  0  0  0  0  0  0  0  0  0
    2.2603    0.1677    0.0323 C   0  0  0  0  0  0  0  0  0  0  0  0
    2.8496   -1.2327    0.0109 C   0  0  0  0  0  0  0  0  0  0  0  0
   -3.2002   -1.7263    0.9418 H   0  0  0  0  0  0  0  0  0  0  0  0
   -2.1734   -2.0496   -0.4579 H   0  0  0  0  0  0  0  0  0  0  0  0
   -1.4604   -1.4636    1.0481 H   0  0  0  0  0  0  0  0  0  0  0  0
   -2.6388    0.7012    0.7940 H   0  0  0  0  0  0  0  0  0  0  0  0
   -3.4080    0.1228   -0.6916 H   0  0  0  0  0  0  0  0  0  0  0  0
   -1.5181    1.5382   -1.2765 H   0  0  0  0  0  0  0  0  0  0  0  0
   -1.0908   -0.1281   -1.7134 H   0  0  0  0  0  0  0  0  0  0  0  0
    2.8946    0.8685   -0.5166 H   0  0  0  0  0  0  0  0  0  0  0  0
    2.1148    0.5305    1.0545 H   0  0  0  0  0  0  0  0  0  0  0  0
    2.2152   -1.9189    0.5658 H   0  0  0  0  0  0  0  0  0  0  0  0
    2.9327   -1.5828   -1.0139 H   0  0  0  0  0  0  0  0  0  0  0  0
    3.8348   -1.2141    0.4651 H   0  0  0  0  0  0  0  0  0  0  0  0
  1  2  1  0  0  0  0
  2  3  1  0  0  0  0
  3  4  1  0  0  0  0
  4  5  2  0  0  0  0
  4  6  1  0  0  0  0
  6  7  1  0  0  0  0
  7  8  1  0  0  0  0
  1  9  1  0  0  0  0
  1 10  1  0  0  0  0
  1 11  1  0  0  0  0
  2 12  1  0  0  0  0
  2 13  1  0  0  0  0
  3 14  1  0  0  0  0
  3 15  1  0  0  0  0
  7 16  1  0  0  0  0
  7 17  1  0  0  0  0
  8 18  1  0  0  0  0
  8 19  1  0  0  0  0
  8 20  1  0  0  0  0
M  END
