 xtb: 6.7.1 (edcfbbe)
          04112515533D

 20 19  0     0  0            999 V2000
   -2.8303   -1.1062   -0.1169 C   0  0  0  0  0  0  0  0  0  0  0  0
   -2.5178    0.3845   -0.0638 C   0  0  0  0  0  0  0  0  0  0  0  0
   -1.2195    0.6626    0.6930 C   0  0  0  0  0  0  0  0  0  0  0  0
   -0.0063    0.1816   -0.0617 C   0  0  0  0  0  0  0  0  0  0  0  0
    0.0931    0.1266   -1.2689 O   0  0  0  0  0  0  0  0  0  0  0  0
    0.9672   -0.1715    0.7723 O   0  0  0  0  0  0  0  0  0  0  0  0
    2.2221   -0.5994    0.2170 C   0  0  0  0  0  0  0  0  0  0  0  0
    3.1160    0.5879   -0.1068 C   0  0  0  0  0  0  0  0  0  0  0  0
   -2.9205   -1.5153    0.8867 H   0  0  0  0  0  0  0  0  0  0  0  0
   -3.7632   -1.2792   -0.6466 H   0  0  0  0  0  0  0  0  0  0  0  0
   -2.0376   -1.6387   -0.6385 H   0  0  0  0  0  0  0  0  0  0  0  0
   -3.3348    0.9125    0.4286 H   0  0  0  0  0  0  0  0  0  0  0  0
   -2.4196    0.7708   -1.0799 H   0  0  0  0  0  0  0  0  0  0  0  0
   -1.2210    0.1941    1.6770 H   0  0  0  0  0  0  0  0  0  0  0  0
   -1.0929    1.7393    0.8295 H   0  0  0  0  0  0  0  0  0  0  0  0
    2.6623   -1.2291    0.9906 H   0  0  0  0  0  0  0  0  0  0  0  0
    2.0223   -1.1873   -0.6841 H   0  0  0  0  0  0  0  0  0  0  0  0
    4.0784    0.2286   -0.4563 H   0  0  0  0  0  0  0  0  0  0  0  0
    2.6612    1.1944   -0.8869 H   0  0  0  0  0  0  0  0  0  0  0  0
    3.2608    1.2000    0.7793 H   0  0  0  0  0  0  0  0  0  0  0  0
  1  2  1  0  0  0  0
  2  3  1  0  0  0  0
  3  4  1  0  0  0  0
  4  5  2  0  0  0  0
  4  6  1  0  0  0  0
  6  7  1  0  0  0  0
  7  8  1  0  0  0  0
  1  9  1  0  0  0  0
  1 10  1  0  0  0  0
  1 11  1  0  0  0  0
  2 12  1  0  0  0  0
  2 13  1  0  0  0  0
  3 14  1  0  0  0  0
  3 15  1  0  0  0  0
  7 16  1  0  0  0  0
  7 17  1  0  0  0  0
  8 18  1  0  0  0  0
  8 19  1  0  0  0  0
  8 20  1  0  0  0  0
M  END
