 xtb: 6.7.1 (edcfbbe)
          04112515533D

 20 19  0     0  0            999 V2000
   -3.3376   -1.0939    0.2696 C   0  0  0  0  0  0  0  0  0  0  0  0
   -1.9742   -0.4896    0.5795 C   0  0  0  0  0  0  0  0  0  0  0  0
   -1.3398    0.1215   -0.6789 C   0  0  0  0  0  0  0  0  0  0  0  0
    0.0001    0.7090   -0.3287 C   0  0  0  0  0  0  0  0  0  0  0  0
    0.2061    1.8819   -0.0886 O   0  0  0  0  0  0  0  0  0  0  0  0
    0.9426   -0.2200   -0.2715 O   0  0  0  0  0  0  0  0  0  0  0  0
    2.2680    0.1850    0.1111 C   0  0  0  0  0  0  0  0  0  0  0  0
    3.0915   -1.0634    0.3621 C   0  0  0  0  0  0  0  0  0  0  0  0
   -4.0134   -0.3338   -0.1136 H   0  0  0  0  0  0  0  0  0  0  0  0
   -3.2445   -1.8806   -0.4745 H   0  0  0  0  0  0  0  0  0  0  0  0
   -3.7715   -1.5190    1.1704 H   0  0  0  0  0  0  0  0  0  0  0  0
   -1.3089   -1.2605    0.9721 H   0  0  0  0  0  0  0  0  0  0  0  0
   -2.0779    0.2882    1.3391 H   0  0  0  0  0  0  0  0  0  0  0  0
   -1.9771    0.9140   -1.0699 H   0  0  0  0  0  0  0  0  0  0  0  0
   -1.2012   -0.6555   -1.4297 H   0  0  0  0  0  0  0  0  0  0  0  0
    2.6879    0.7897   -0.6993 H   0  0  0  0  0  0  0  0  0  0  0  0
    2.1944    0.8147    1.0038 H   0  0  0  0  0  0  0  0  0  0  0  0
    4.1025   -0.7780    0.6328 H   0  0  0  0  0  0  0  0  0  0  0  0
    2.6548   -1.6437    1.1694 H   0  0  0  0  0  0  0  0  0  0  0  0
    3.1185   -1.6755   -0.5344 H   0  0  0  0  0  0  0  0  0  0  0  0
  1  2  1  0  0  0  0
  2  3  1  0  0  0  0
  3  4  1  0  0  0  0
  4  5  2  0  0  0  0
  4  6  1  0  0  0  0
  6  7  1  0  0  0  0
  7  8  1  0  0  0  0
  1  9  1  0  0  0  0
  1 10  1  0  0  0  0
  1 11  1  0  0  0  0
  2 12  1  0  0  0  0
  2 13  1  0  0  0  0
  3 14  1  0  0  0  0
  3 15  1  0  0  0  0
  7 16  1  0  0  0  0
  7 17  1  0  0  0  0
  8 18  1  0  0  0  0
  8 19  1  0  0  0  0
  8 20  1  0  0  0  0
M  END
