33
 xtb: 6.7.1 (edcfbbe)
C           -4.54654078137260       -1.14181428417743        0.26114674457746
C           -3.80142887204372       -2.29983930274905        0.03376931063394
C           -2.42797423035527       -2.22312157180817       -0.15456343750732
C           -1.77890688447001       -0.98630782938897       -0.11525708025969
C           -2.53005259258710        0.17741063344447        0.11814897277728
C           -3.91282815500085        0.09139731716554        0.30378125355616
C           -1.86449477674810        1.49085761130911        0.17245499149787
O           -2.51213590930216        2.52228924571675        0.37784503134996
C           -0.39386791876489        1.53565587013893       -0.02037810586804
C            0.22326611521033        2.77285075169603        0.06867026660869
C            1.60709851660292        2.86988697703263       -0.10079011953523
C            2.36863430784617        1.75445757373217       -0.36210021260796
C            1.77521226880634        0.47042677762423       -0.47523964931865
C            0.35558106609698        0.35663697257843       -0.28520389389084
C           -0.31198080595734       -0.93145787425189       -0.33518336768858
O            0.29850450352908       -2.00096982906437       -0.55440196642453
N            2.52903891011714       -0.60921343495208       -0.78736683050399
C            3.98540285927892       -0.65067697869789       -0.75699561576337
C            4.54932847303285       -0.67780271219097        0.65856440970762
O            4.14545809309330       -1.85317830787001        1.37694080470052
H           -5.61996879749341       -1.20533416411826        0.40498587422302
H           -4.29630489808328       -3.26497216937794        0.00221337018793
H           -1.84811945207078       -3.12097543155096       -0.33379104335871
H           -4.48058519745945        0.99794166281726        0.48062885131816
H           -0.37224031812879        3.65437279980952        0.27183663521313
H            2.09211719220721        3.83780821359847       -0.02587657956467
H            3.43817166304641        1.86233612574301       -0.49018003612639
H            2.02784030172047       -1.49200480978464       -0.75261102181472
H            4.41255590576589        0.19515011863891       -1.30637017777071
H            4.28930964717564       -1.56160391694153       -1.28092407062102
H            4.25590356931675        0.22572354654565        1.21029466310908
H            5.64162747671055       -0.70777958514074        0.60164439089732
H            3.19385778175362       -1.78730677422945        1.53349962867636
