 xtb: 6.7.1 (edcfbbe)
          04112515533D

 20 19  0     0  0            999 V2000
   -3.5212   -0.6819    0.4633 C   0  0  0  0  0  0  0  0  0  0  0  0
   -2.1648    0.0029    0.5709 C   0  0  0  0  0  0  0  0  0  0  0  0
   -1.2267   -0.4443   -0.5604 C   0  0  0  0  0  0  0  0  0  0  0  0
    0.0948    0.2606   -0.4156 C   0  0  0  0  0  0  0  0  0  0  0  0
    0.3922    1.2979   -0.9715 O   0  0  0  0  0  0  0  0  0  0  0  0
    0.8874   -0.3687    0.4424 O   0  0  0  0  0  0  0  0  0  0  0  0
    2.1775    0.1965    0.7290 C   0  0  0  0  0  0  0  0  0  0  0  0
    3.2190   -0.2819   -0.2709 C   0  0  0  0  0  0  0  0  0  0  0  0
   -4.1716   -0.3515    1.2685 H   0  0  0  0  0  0  0  0  0  0  0  0
   -3.9954   -0.4411   -0.4845 H   0  0  0  0  0  0  0  0  0  0  0  0
   -3.4086   -1.7608    0.5296 H   0  0  0  0  0  0  0  0  0  0  0  0
   -1.7034   -0.2393    1.5301 H   0  0  0  0  0  0  0  0  0  0  0  0
   -2.2913    1.0865    0.5197 H   0  0  0  0  0  0  0  0  0  0  0  0
   -1.6597   -0.1825   -1.5254 H   0  0  0  0  0  0  0  0  0  0  0  0
   -1.0659   -1.5197   -0.4975 H   0  0  0  0  0  0  0  0  0  0  0  0
    2.0936    1.2873    0.7062 H   0  0  0  0  0  0  0  0  0  0  0  0
    2.4098   -0.1458    1.7380 H   0  0  0  0  0  0  0  0  0  0  0  0
    2.9712    0.0777   -1.2672 H   0  0  0  0  0  0  0  0  0  0  0  0
    4.1928    0.1047    0.0112 H   0  0  0  0  0  0  0  0  0  0  0  0
    3.2533   -1.3679   -0.2846 H   0  0  0  0  0  0  0  0  0  0  0  0
  1  2  1  0  0  0  0
  2  3  1  0  0  0  0
  3  4  1  0  0  0  0
  4  5  2  0  0  0  0
  4  6  1  0  0  0  0
  6  7  1  0  0  0  0
  7  8  1  0  0  0  0
  1  9  1  0  0  0  0
  1 10  1  0  0  0  0
  1 11  1  0  0  0  0
  2 12  1  0  0  0  0
  2 13  1  0  0  0  0
  3 14  1  0  0  0  0
  3 15  1  0  0  0  0
  7 16  1  0  0  0  0
  7 17  1  0  0  0  0
  8 18  1  0  0  0  0
  8 19  1  0  0  0  0
  8 20  1  0  0  0  0
M  END
