 xtb: 6.7.1 (edcfbbe)
          04112515533D

 20 19  0     0  0            999 V2000
   -2.5190   -1.2741    0.4761 C   0  0  0  0  0  0  0  0  0  0  0  0
   -2.5500    0.1166   -0.1465 C   0  0  0  0  0  0  0  0  0  0  0  0
   -1.2701    0.4135   -0.9286 C   0  0  0  0  0  0  0  0  0  0  0  0
   -0.0763    0.5697   -0.0206 C   0  0  0  0  0  0  0  0  0  0  0  0
   -0.1012    1.0646    1.0872 O   0  0  0  0  0  0  0  0  0  0  0  0
    1.0266    0.1125   -0.5993 O   0  0  0  0  0  0  0  0  0  0  0  0
    2.2796    0.1967    0.1019 C   0  0  0  0  0  0  0  0  0  0  0  0
    3.0272   -1.1155   -0.0585 C   0  0  0  0  0  0  0  0  0  0  0  0
   -3.4437   -1.4697    1.0122 H   0  0  0  0  0  0  0  0  0  0  0  0
   -2.3954   -2.0349   -0.2910 H   0  0  0  0  0  0  0  0  0  0  0  0
   -1.6928   -1.3534    1.1799 H   0  0  0  0  0  0  0  0  0  0  0  0
   -2.6594    0.8651    0.6403 H   0  0  0  0  0  0  0  0  0  0  0  0
   -3.4031    0.1972   -0.8206 H   0  0  0  0  0  0  0  0  0  0  0  0
   -1.3777    1.3585   -1.4660 H   0  0  0  0  0  0  0  0  0  0  0  0
   -1.0529   -0.3708   -1.6533 H   0  0  0  0  0  0  0  0  0  0  0  0
    2.8398    1.0247   -0.3418 H   0  0  0  0  0  0  0  0  0  0  0  0
    2.0748    0.4231    1.1530 H   0  0  0  0  0  0  0  0  0  0  0  0
    2.4658   -1.9285    0.3938 H   0  0  0  0  0  0  0  0  0  0  0  0
    3.1707   -1.3323   -1.1129 H   0  0  0  0  0  0  0  0  0  0  0  0
    3.9945   -1.0380    0.4270 H   0  0  0  0  0  0  0  0  0  0  0  0
  1  2  1  0  0  0  0
  2  3  1  0  0  0  0
  3  4  1  0  0  0  0
  4  5  2  0  0  0  0
  4  6  1  0  0  0  0
  6  7  1  0  0  0  0
  7  8  1  0  0  0  0
  1  9  1  0  0  0  0
  1 10  1  0  0  0  0
  1 11  1  0  0  0  0
  2 12  1  0  0  0  0
  2 13  1  0  0  0  0
  3 14  1  0  0  0  0
  3 15  1  0  0  0  0
  7 16  1  0  0  0  0
  7 17  1  0  0  0  0
  8 18  1  0  0  0  0
  8 19  1  0  0  0  0
  8 20  1  0  0  0  0
M  END
