 xtb: 6.7.1 (edcfbbe)
          04112512253D

 14 13  0     0  0            999 V2000
   -2.9877   -0.8899   -0.2230 C   0  0  0  0  0  0  0  0  0  0  0  0
   -2.5514    0.2908    0.6376 C   0  0  0  0  0  0  0  0  0  0  0  0
   -1.7826    1.3517   -0.1682 C   0  0  0  0  0  0  0  0  0  0  0  0
   -0.3425    1.5256    0.2654 C   0  0  0  0  0  0  0  0  0  0  0  0
    0.8751   -0.2520   -0.0563 I   0  0  0  0  0  0  0  0  0  0  0  0
   -2.1272   -1.3779   -0.6750 H   0  0  0  0  0  0  0  0  0  0  0  0
   -3.5149   -1.6235    0.3818 H   0  0  0  0  0  0  0  0  0  0  0  0
   -3.6530   -0.5579   -1.0169 H   0  0  0  0  0  0  0  0  0  0  0  0
   -1.9244   -0.0776    1.4525 H   0  0  0  0  0  0  0  0  0  0  0  0
   -3.4354    0.7416    1.0910 H   0  0  0  0  0  0  0  0  0  0  0  0
   -1.8185    1.1035   -1.2307 H   0  0  0  0  0  0  0  0  0  0  0  0
   -2.2574    2.3288   -0.0473 H   0  0  0  0  0  0  0  0  0  0  0  0
   -0.2664    1.7293    1.3302 H   0  0  0  0  0  0  0  0  0  0  0  0
    0.1495    2.3150   -0.2966 H   0  0  0  0  0  0  0  0  0  0  0  0
  1  2  1  0  0  0  0
  2  3  1  0  0  0  0
  3  4  1  0  0  0  0
  4  5  1  0  0  0  0
  1  6  1  0  0  0  0
  1  7  1  0  0  0  0
  1  8  1  0  0  0  0
  2  9  1  0  0  0  0
  2 10  1  0  0  0  0
  3 11  1  0  0  0  0
  3 12  1  0  0  0  0
  4 13  1  0  0  0  0
  4 14  1  0  0  0  0
M  END
