 xtb: 6.7.1 (edcfbbe)
          04112513313D

 31 32  0     0  0            999 V2000
   -3.7464    0.5397   -1.8026 C   0  0  0  0  0  0  0  0  0  0  0  0
   -3.2839   -0.4280   -0.7121 C   0  0  0  0  0  0  0  0  0  0  0  0
   -3.5701   -1.4521   -0.9618 H   0  0  0  0  0  0  0  0  0  0  0  0
   -1.7840   -0.3686   -0.5256 C   0  0  0  0  0  0  0  0  0  0  0  0
   -0.9826   -1.4619   -0.8277 C   0  0  0  0  0  0  0  0  0  0  0  0
    0.3890   -1.3956   -0.6747 C   0  0  0  0  0  0  0  0  0  0  0  0
    1.0164   -0.2394   -0.2138 C   0  0  0  0  0  0  0  0  0  0  0  0
    0.1874    0.8360    0.0904 C   0  0  0  0  0  0  0  0  0  0  0  0
   -1.1833    0.7915   -0.0540 C   0  0  0  0  0  0  0  0  0  0  0  0
    0.7299    1.9885    0.5852 F   0  0  0  0  0  0  0  0  0  0  0  0
    2.4783   -0.1806   -0.0565 C   0  0  0  0  0  0  0  0  0  0  0  0
    3.1578   -1.2441    0.5337 C   0  0  0  0  0  0  0  0  0  0  0  0
    4.5317   -1.2024    0.6800 C   0  0  0  0  0  0  0  0  0  0  0  0
    5.2464   -0.1029    0.2336 C   0  0  0  0  0  0  0  0  0  0  0  0
    4.5791    0.9566   -0.3579 C   0  0  0  0  0  0  0  0  0  0  0  0
    3.2041    0.9211   -0.5015 C   0  0  0  0  0  0  0  0  0  0  0  0
   -3.9104   -0.0855    0.6252 C   0  0  0  0  0  0  0  0  0  0  0  0
   -4.1344    1.0367    1.0213 O   0  0  0  0  0  0  0  0  0  0  0  0
   -4.1580   -1.1658    1.3453 O   0  0  0  0  0  0  0  0  0  0  0  0
   -4.8100    0.4156   -1.9876 H   0  0  0  0  0  0  0  0  0  0  0  0
   -3.5693    1.5658   -1.4921 H   0  0  0  0  0  0  0  0  0  0  0  0
   -3.2003    0.3470   -2.7213 H   0  0  0  0  0  0  0  0  0  0  0  0
   -1.4341   -2.3718   -1.1906 H   0  0  0  0  0  0  0  0  0  0  0  0
    0.9990   -2.2475   -0.9305 H   0  0  0  0  0  0  0  0  0  0  0  0
   -1.7714    1.6543    0.2184 H   0  0  0  0  0  0  0  0  0  0  0  0
    2.6007   -2.0948    0.8964 H   0  0  0  0  0  0  0  0  0  0  0  0
    5.0467   -2.0293    1.1452 H   0  0  0  0  0  0  0  0  0  0  0  0
    6.3192   -0.0709    0.3473 H   0  0  0  0  0  0  0  0  0  0  0  0
    5.1306    1.8154   -0.7101 H   0  0  0  0  0  0  0  0  0  0  0  0
    2.6915    1.7473   -0.9715 H   0  0  0  0  0  0  0  0  0  0  0  0
   -4.5286   -0.9630    2.2268 H   0  0  0  0  0  0  0  0  0  0  0  0
  1  2  1  0  0  0  0
  2  3  1  0  0  0  0
  2  4  1  0  0  0  0
  4  5  4  0  0  0  0
  5  6  4  0  0  0  0
  6  7  4  0  0  0  0
  7  8  4  0  0  0  0
  4  9  4  0  0  0  0
  8  9  4  0  0  0  0
  8 10  1  0  0  0  0
  7 11  1  0  0  0  0
 11 12  4  0  0  0  0
 12 13  4  0  0  0  0
 13 14  4  0  0  0  0
 14 15  4  0  0  0  0
 11 16  4  0  0  0  0
 15 16  4  0  0  0  0
  2 17  1  0  0  0  0
 17 18  2  0  0  0  0
 17 19  1  0  0  0  0
  1 20  1  0  0  0  0
  1 21  1  0  0  0  0
  1 22  1  0  0  0  0
  5 23  1  0  0  0  0
  6 24  1  0  0  0  0
  9 25  1  0  0  0  0
 12 26  1  0  0  0  0
 13 27  1  0  0  0  0
 14 28  1  0  0  0  0
 15 29  1  0  0  0  0
 16 30  1  0  0  0  0
 19 31  1  0  0  0  0
M  END
