20
 xtb: 6.7.1 (edcfbbe)
C           -3.65109730751637       -0.62315714391565        0.24741866540657
C           -2.35787982274937       -0.16686693470241       -0.42087756262813
C           -1.18653225797588       -0.20333600672794        0.55252645724811
C            0.11601440599465        0.23877173534938       -0.05191142906323
O            0.26489424297435        0.63415512345480       -1.19610282695432
O            1.12171243290653        0.15641827184603        0.84356826492436
C            2.45716582100400        0.54186322006875        0.38550701862056
C            3.12823535825270       -0.59637598070976       -0.34837035845355
H           -3.90457622970407        0.02226207660197        1.09563709982724
H           -4.48805411440193       -0.59689038412753       -0.45696814827493
H           -3.55944772565102       -1.64834853841337        0.62275685262020
H           -2.47634251637175        0.85107481998110       -0.80857735252541
H           -2.13514162000097       -0.80868500851411       -1.28077738334449
H           -1.03970964450630       -1.21369686265657        0.95462935294669
H           -1.37931323524032        0.43859609452162        1.42193203605962
H            2.37249216447187        1.43870851165868       -0.23316033625733
H            2.98790771309314        0.79063440736795        1.30639619034112
H            2.58829721220774       -0.85595708732059       -1.26291174343970
H            4.14352266987843       -0.29327183360244       -0.62339305696478
H            3.19623437501535       -1.48279615429367        0.28895996869206
