 xtb: 6.7.1 (edcfbbe)
          04112512293D

 16 15  0     0  0            999 V2000
    2.4305   -0.2956   -0.1274 C   0  0  0  0  0  0  0  0  0  0  0  0
    1.0306    0.2415   -0.4003 C   0  0  0  0  0  0  0  0  0  0  0  0
    0.0500   -0.1639    0.6990 C   0  0  0  0  0  0  0  0  0  0  0  0
   -1.3480    0.4262    0.5091 C   0  0  0  0  0  0  0  0  0  0  0  0
   -2.0527   -0.2289   -0.5864 N   0  0  0  0  0  0  0  0  0  0  0  0
    2.4153   -1.3814   -0.0720 H   0  0  0  0  0  0  0  0  0  0  0  0
    3.1145   -0.0001   -0.9192 H   0  0  0  0  0  0  0  0  0  0  0  0
    2.8089    0.0902    0.8165 H   0  0  0  0  0  0  0  0  0  0  0  0
    1.0672    1.3321   -0.4671 H   0  0  0  0  0  0  0  0  0  0  0  0
    0.6846   -0.1427   -1.3617 H   0  0  0  0  0  0  0  0  0  0  0  0
   -0.0358   -1.2507    0.7290 H   0  0  0  0  0  0  0  0  0  0  0  0
    0.4381    0.1745    1.6618 H   0  0  0  0  0  0  0  0  0  0  0  0
   -1.2602    1.5186    0.3723 H   0  0  0  0  0  0  0  0  0  0  0  0
   -1.9339    0.2513    1.4161 H   0  0  0  0  0  0  0  0  0  0  0  0
   -1.5667   -0.0527   -1.4592 H   0  0  0  0  0  0  0  0  0  0  0  0
   -2.9837    0.1617   -0.6754 H   0  0  0  0  0  0  0  0  0  0  0  0
  1  2  1  0  0  0  0
  2  3  1  0  0  0  0
  3  4  1  0  0  0  0
  4  5  1  0  0  0  0
  1  6  1  0  0  0  0
  1  7  1  0  0  0  0
  1  8  1  0  0  0  0
  2  9  1  0  0  0  0
  2 10  1  0  0  0  0
  3 11  1  0  0  0  0
  3 12  1  0  0  0  0
  4 13  1  0  0  0  0
  4 14  1  0  0  0  0
  5 15  1  0  0  0  0
  5 16  1  0  0  0  0
M  END
