 xtb: 6.7.1 (edcfbbe)
          04112518223D

 33 35  0     0  0            999 V2000
   -4.6211   -1.1659    0.0198 C   0  0  0  0  0  0  0  0  0  0  0  0
   -3.8251   -2.3022    0.0602 C   0  0  0  0  0  0  0  0  0  0  0  0
   -2.4477   -2.1828    0.0660 C   0  0  0  0  0  0  0  0  0  0  0  0
   -1.8412   -0.9289    0.0311 C   0  0  0  0  0  0  0  0  0  0  0  0
   -2.6454    0.2159   -0.0103 C   0  0  0  0  0  0  0  0  0  0  0  0
   -4.0330    0.0843   -0.0151 C   0  0  0  0  0  0  0  0  0  0  0  0
   -2.0456    1.5557   -0.0490 C   0  0  0  0  0  0  0  0  0  0  0  0
   -2.7400    2.5697   -0.0820 O   0  0  0  0  0  0  0  0  0  0  0  0
   -0.5738    1.6256   -0.0474 C   0  0  0  0  0  0  0  0  0  0  0  0
   -0.0056    2.8872   -0.0918 C   0  0  0  0  0  0  0  0  0  0  0  0
    1.3790    3.0378   -0.0949 C   0  0  0  0  0  0  0  0  0  0  0  0
    2.1908    1.9364   -0.0527 C   0  0  0  0  0  0  0  0  0  0  0  0
    1.6545    0.6261   -0.0050 C   0  0  0  0  0  0  0  0  0  0  0  0
    0.2348    0.4656   -0.0031 C   0  0  0  0  0  0  0  0  0  0  0  0
   -0.3671   -0.8494    0.0403 C   0  0  0  0  0  0  0  0  0  0  0  0
    0.2923   -1.9033    0.0848 O   0  0  0  0  0  0  0  0  0  0  0  0
    2.4644   -0.4374    0.0411 N   0  0  0  0  0  0  0  0  0  0  0  0
    3.9051   -0.4023    0.0320 C   0  0  0  0  0  0  0  0  0  0  0  0
    4.4519   -1.8350    0.0603 C   0  0  0  0  0  0  0  0  0  0  0  0
    5.8555   -1.8720   -0.0290 O   0  0  0  0  0  0  0  0  0  0  0  0
   -5.6959   -1.2560    0.0158 H   0  0  0  0  0  0  0  0  0  0  0  0
   -4.2792   -3.2804    0.0872 H   0  0  0  0  0  0  0  0  0  0  0  0
   -1.8111   -3.0546    0.0974 H   0  0  0  0  0  0  0  0  0  0  0  0
   -4.6274    0.9854   -0.0468 H   0  0  0  0  0  0  0  0  0  0  0  0
   -0.6618    3.7432   -0.1244 H   0  0  0  0  0  0  0  0  0  0  0  0
    1.8083    4.0266   -0.1311 H   0  0  0  0  0  0  0  0  0  0  0  0
    3.2603    2.0610   -0.0569 H   0  0  0  0  0  0  0  0  0  0  0  0
    2.0035   -1.3442    0.0656 H   0  0  0  0  0  0  0  0  0  0  0  0
    4.2740    0.1472    0.9070 H   0  0  0  0  0  0  0  0  0  0  0  0
    4.2755    0.0949   -0.8723 H   0  0  0  0  0  0  0  0  0  0  0  0
    4.0877   -2.3849   -0.8107 H   0  0  0  0  0  0  0  0  0  0  0  0
    4.1041   -2.3480    0.9660 H   0  0  0  0  0  0  0  0  0  0  0  0
    6.2415   -1.4663    0.7601 H   0  0  0  0  0  0  0  0  0  0  0  0
  1  2  4  0  0  0  0
  2  3  4  0  0  0  0
  3  4  4  0  0  0  0
  4  5  4  0  0  0  0
  1  6  4  0  0  0  0
  5  6  4  0  0  0  0
  5  7  1  0  0  0  0
  7  8  2  0  0  0  0
  7  9  1  0  0  0  0
  9 10  4  0  0  0  0
 10 11  4  0  0  0  0
 11 12  2  0  0  0  0
 12 13  4  0  0  0  0
  9 14  4  0  0  0  0
 13 14  4  0  0  0  0
  4 15  1  0  0  0  0
 14 15  1  0  0  0  0
 15 16  2  0  0  0  0
 13 17  4  0  0  0  0
 17 18  1  0  0  0  0
 18 19  1  0  0  0  0
 19 20  1  0  0  0  0
  1 21  1  0  0  0  0
  2 22  1  0  0  0  0
  3 23  1  0  0  0  0
  6 24  1  0  0  0  0
 10 25  1  0  0  0  0
 11 26  1  0  0  0  0
 12 27  1  0  0  0  0
 17 28  1  0  0  0  0
 18 29  1  0  0  0  0
 18 30  1  0  0  0  0
 19 31  1  0  0  0  0
 19 32  1  0  0  0  0
 20 33  1  0  0  0  0
M  END
