 xtb: 6.7.1 (edcfbbe)
          04112517463D

 20 19  0     0  0            999 V2000
   -3.6817   -0.7487    0.0860 C   0  0  0  0  0  0  0  0  0  0  0  0
   -2.4821    0.1894    0.0595 C   0  0  0  0  0  0  0  0  0  0  0  0
   -1.1679   -0.5851    0.1037 C   0  0  0  0  0  0  0  0  0  0  0  0
    0.0332    0.3214    0.0611 C   0  0  0  0  0  0  0  0  0  0  0  0
    0.0028    1.5282   -0.0618 O   0  0  0  0  0  0  0  0  0  0  0  0
    1.1639   -0.3664    0.1734 O   0  0  0  0  0  0  0  0  0  0  0  0
    2.3995    0.3688    0.1415 C   0  0  0  0  0  0  0  0  0  0  0  0
    3.5412   -0.6199    0.2752 C   0  0  0  0  0  0  0  0  0  0  0  0
   -4.6060   -0.1788    0.0547 H   0  0  0  0  0  0  0  0  0  0  0  0
   -3.6609   -1.4184   -0.7701 H   0  0  0  0  0  0  0  0  0  0  0  0
   -3.6770   -1.3477    0.9932 H   0  0  0  0  0  0  0  0  0  0  0  0
   -2.5222    0.8721    0.9103 H   0  0  0  0  0  0  0  0  0  0  0  0
   -2.5039    0.8007   -0.8444 H   0  0  0  0  0  0  0  0  0  0  0  0
   -1.0952   -1.2684   -0.7450 H   0  0  0  0  0  0  0  0  0  0  0  0
   -1.1003   -1.1885    1.0108 H   0  0  0  0  0  0  0  0  0  0  0  0
    2.4479    0.9224   -0.8020 H   0  0  0  0  0  0  0  0  0  0  0  0
    2.3908    1.0946    0.9614 H   0  0  0  0  0  0  0  0  0  0  0  0
    3.4557   -1.1616    1.2124 H   0  0  0  0  0  0  0  0  0  0  0  0
    3.5142   -1.3318   -0.5443 H   0  0  0  0  0  0  0  0  0  0  0  0
    4.4843   -0.0841    0.2547 H   0  0  0  0  0  0  0  0  0  0  0  0
  1  2  1  0  0  0  0
  2  3  1  0  0  0  0
  3  4  1  0  0  0  0
  4  5  2  0  0  0  0
  4  6  1  0  0  0  0
  6  7  1  0  0  0  0
  7  8  1  0  0  0  0
  1  9  1  0  0  0  0
  1 10  1  0  0  0  0
  1 11  1  0  0  0  0
  2 12  1  0  0  0  0
  2 13  1  0  0  0  0
  3 14  1  0  0  0  0
  3 15  1  0  0  0  0
  7 16  1  0  0  0  0
  7 17  1  0  0  0  0
  8 18  1  0  0  0  0
  8 19  1  0  0  0  0
  8 20  1  0  0  0  0
M  END
