31
 xtb: 6.7.1 (edcfbbe)
C           -3.83256942294036       -0.16729427271788       -1.98266859329337
C           -3.34061624419731       -0.35171842372052       -0.54918471002465
H           -3.62885532015351       -1.34115317876370       -0.17913839942377
C           -1.83085221474214       -0.23401796708005       -0.42582697615042
C           -1.16949934054674        0.92883177239756       -0.83124911074851
C            0.20909955445726        1.03326999632594       -0.71181036239675
C            0.98607541865935       -0.00663060668322       -0.17997605495454
C            0.28806148900059       -1.14847478198422        0.21153145383950
C           -1.08392744356169       -1.28502180935481        0.10281679731867
F            0.98283089982068       -2.21238194116984        0.69562942522377
C            2.45299478483791        0.11396125353815       -0.06240710620832
C            3.12455955292851       -0.27013298655969        1.10638019383771
C            4.50324494944418       -0.11961027110683        1.20914675819399
C            5.23434754962055        0.41043841650270        0.14797789056752
C            4.57563394659275        0.79559016664423       -1.01738271483441
C            3.19621979701411        0.65046645290472       -1.12230525744569
C           -3.96969561508636        0.66107234255068        0.38722483847619
O           -4.54913101145362        1.67515701744027        0.04727389185662
O           -3.79959042594528        0.31334104689098        1.68226650303604
H           -4.92018849941283       -0.26760397240111       -2.02924382547459
H           -3.55984569529486        0.81606625151674       -2.37310474199634
H           -3.38439848297775       -0.93131684826032       -2.62272890511269
H           -1.73580629135429        1.76323552291915       -1.23313561236850
H            0.70737431870537        1.94813976109470       -1.01690926050232
H           -1.55615293828903       -2.20885167767235        0.42131326532177
H            2.56216103653218       -0.66582525066229        1.94531204038082
H            5.00764333999650       -0.41306184936137        2.12456532341889
H            6.31069664372364        0.52345256741711        0.22963961695982
H            5.13769908990719        1.20515204899110       -1.85091564957310
H            2.68958366558481        0.93938901365385       -2.03812631306277
H           -4.19324180420413        1.00458782805218        2.24301885643374
