20
 xtb: 6.7.1 (edcfbbe)
C           -3.32673126661172       -1.08557862969036        0.10694562147594
C           -1.87858405555406       -0.73090222077347        0.42347965685478
C           -1.34723393205255        0.35839661249885       -0.52725126911191
C            0.07019621888136        0.69515990348882       -0.17414174235363
O            0.39912865237301        1.53641177246376        0.64799244488697
O            0.95010882951588       -0.08126263496975       -0.83775592260321
C            2.36331394446982        0.05594192591679       -0.48048108691160
C            2.68257788656042       -0.74475752906285        0.76076960270478
H           -3.42304061996049       -1.46322529523140       -0.91663662341428
H           -3.69635062837587       -1.85823079599389        0.78823539152898
H           -3.97586552677407       -0.20894830094056        0.20587615835656
H           -1.24602780114256       -1.62197747095047        0.33706884197025
H           -1.79547696861006       -0.37428598718098        1.45662318780514
H           -1.94897325982855        1.26562519845752       -0.42324862951151
H           -1.40377778788745        0.00618093188855       -1.56112666732304
H            2.89289098748614       -0.33042266915706       -1.35327186836226
H            2.59520165247161        1.11708279759511       -0.36020216938589
H            3.75483795681065       -0.67012539130272        0.96796207578362
H            2.13848568206282       -0.36737366459903        1.63083016856504
H            2.43410200735091       -1.80013758697946        0.61566065413789
