 xtb: 6.7.1 (edcfbbe)
          04112516443D

 20 19  0     0  0            999 V2000
   -3.3744   -1.0500    0.2757 C   0  0  0  0  0  0  0  0  0  0  0  0
   -2.0198   -0.4270    0.5871 C   0  0  0  0  0  0  0  0  0  0  0  0
   -1.3206    0.0486   -0.6955 C   0  0  0  0  0  0  0  0  0  0  0  0
    0.0045    0.6646   -0.3387 C   0  0  0  0  0  0  0  0  0  0  0  0
    0.1937    1.8489   -0.1446 O   0  0  0  0  0  0  0  0  0  0  0  0
    0.9547   -0.2503   -0.2181 O   0  0  0  0  0  0  0  0  0  0  0  0
    2.2654    0.1901    0.1762 C   0  0  0  0  0  0  0  0  0  0  0  0
    3.1518   -1.0317    0.3191 C   0  0  0  0  0  0  0  0  0  0  0  0
   -4.0229   -0.3276   -0.2131 H   0  0  0  0  0  0  0  0  0  0  0  0
   -3.2562   -1.9082   -0.3805 H   0  0  0  0  0  0  0  0  0  0  0  0
   -3.8543   -1.3792    1.1932 H   0  0  0  0  0  0  0  0  0  0  0  0
   -1.3830   -1.1588    1.0873 H   0  0  0  0  0  0  0  0  0  0  0  0
   -2.1488    0.4251    1.2579 H   0  0  0  0  0  0  0  0  0  0  0  0
   -1.9329    0.7993   -1.1940 H   0  0  0  0  0  0  0  0  0  0  0  0
   -1.1518   -0.8011   -1.3557 H   0  0  0  0  0  0  0  0  0  0  0  0
    2.6414    0.8783   -0.5881 H   0  0  0  0  0  0  0  0  0  0  0  0
    2.1762    0.7432    1.1170 H   0  0  0  0  0  0  0  0  0  0  0  0
    2.7496   -1.6973    1.0770 H   0  0  0  0  0  0  0  0  0  0  0  0
    3.2024   -1.5659   -0.6250 H   0  0  0  0  0  0  0  0  0  0  0  0
    4.1495   -0.7196    0.6090 H   0  0  0  0  0  0  0  0  0  0  0  0
  1  2  1  0  0  0  0
  2  3  1  0  0  0  0
  3  4  1  0  0  0  0
  4  5  2  0  0  0  0
  4  6  1  0  0  0  0
  6  7  1  0  0  0  0
  7  8  1  0  0  0  0
  1  9  1  0  0  0  0
  1 10  1  0  0  0  0
  1 11  1  0  0  0  0
  2 12  1  0  0  0  0
  2 13  1  0  0  0  0
  3 14  1  0  0  0  0
  3 15  1  0  0  0  0
  7 16  1  0  0  0  0
  7 17  1  0  0  0  0
  8 18  1  0  0  0  0
  8 19  1  0  0  0  0
  8 20  1  0  0  0  0
M  END
