16
 xtb: 6.7.1 (edcfbbe)
C            2.41106790914085       -0.33552931366451       -0.37113790177563
C            1.32222352606719        0.52169186464234        0.26988539926676
C           -0.00656828062610       -0.23854807570455        0.47161821865114
C           -1.17817811550344        0.42261149538527       -0.25220027676832
N           -2.47292246141735       -0.26851721080462       -0.11546959619728
H            2.64676044530215       -1.20370338650927        0.25430743312105
H            2.08665962476706       -0.70872307283611       -1.34917300052056
H            3.33564984199560        0.23277929039925       -0.51865689292306
H            1.68358876554422        0.91241504386163        1.22749456880632
H            1.14204194599096        1.39954070849476       -0.36475121455058
H            0.09471450821438       -1.26739457607489        0.09972006314362
H           -0.25146950876128       -0.31728174027318        1.53839458703490
H           -0.94025336058685        0.50107734914292       -1.32061188570215
H           -1.29680618455386        1.44990090200232        0.11429226284271
H           -2.67439377776205       -0.35541475585061        0.87774788434897
H           -2.34845121567799       -1.22620750554972       -0.43472987207311
