 xtb: 6.7.1 (edcfbbe)
          04112516443D

 20 19  0     0  0            999 V2000
   -3.5288   -0.6727    0.4571 C   0  0  0  0  0  0  0  0  0  0  0  0
   -2.1692    0.0050    0.5690 C   0  0  0  0  0  0  0  0  0  0  0  0
   -1.2238   -0.4597   -0.5491 C   0  0  0  0  0  0  0  0  0  0  0  0
    0.0952    0.2500   -0.4060 C   0  0  0  0  0  0  0  0  0  0  0  0
    0.3841    1.2934   -0.9551 O   0  0  0  0  0  0  0  0  0  0  0  0
    0.8956   -0.3814    0.4431 O   0  0  0  0  0  0  0  0  0  0  0  0
    2.1829    0.1904    0.7295 C   0  0  0  0  0  0  0  0  0  0  0  0
    3.2239   -0.2708   -0.2791 C   0  0  0  0  0  0  0  0  0  0  0  0
   -4.1828   -0.3322    1.2552 H   0  0  0  0  0  0  0  0  0  0  0  0
   -3.9950   -0.4361   -0.4958 H   0  0  0  0  0  0  0  0  0  0  0  0
   -3.4235   -1.7517    0.5323 H   0  0  0  0  0  0  0  0  0  0  0  0
   -1.7177   -0.2296    1.5348 H   0  0  0  0  0  0  0  0  0  0  0  0
   -2.2885    1.0887    0.5052 H   0  0  0  0  0  0  0  0  0  0  0  0
   -1.6515   -0.2125   -1.5203 H   0  0  0  0  0  0  0  0  0  0  0  0
   -1.0621   -1.5338   -0.4693 H   0  0  0  0  0  0  0  0  0  0  0  0
    2.0909    1.2806    0.7169 H   0  0  0  0  0  0  0  0  0  0  0  0
    2.4218   -0.1593    1.7343 H   0  0  0  0  0  0  0  0  0  0  0  0
    2.9672    0.0930   -1.2715 H   0  0  0  0  0  0  0  0  0  0  0  0
    4.1951    0.1239    0.0007 H   0  0  0  0  0  0  0  0  0  0  0  0
    3.2693   -1.3563   -0.3004 H   0  0  0  0  0  0  0  0  0  0  0  0
  1  2  1  0  0  0  0
  2  3  1  0  0  0  0
  3  4  1  0  0  0  0
  4  5  2  0  0  0  0
  4  6  1  0  0  0  0
  6  7  1  0  0  0  0
  7  8  1  0  0  0  0
  1  9  1  0  0  0  0
  1 10  1  0  0  0  0
  1 11  1  0  0  0  0
  2 12  1  0  0  0  0
  2 13  1  0  0  0  0
  3 14  1  0  0  0  0
  3 15  1  0  0  0  0
  7 16  1  0  0  0  0
  7 17  1  0  0  0  0
  8 18  1  0  0  0  0
  8 19  1  0  0  0  0
  8 20  1  0  0  0  0
M  END
