33
 xtb: 6.7.1 (edcfbbe)
C           -4.71111322162742       -0.99803286718418        0.23929690485320
C           -4.01392334508049       -2.20220363974138        0.13019574316643
C           -2.63131024198483       -2.20174763617932        0.00265621188916
C           -1.92546282062329       -0.99601745648694       -0.01976501378877
C           -2.62909004304169        0.21475468368989        0.08976477201164
C           -4.02095838961913        0.20507157376711        0.21964697118860
C           -1.90444502644439        1.49757291127278        0.06746912725555
O           -2.50938041965935        2.56923237359063        0.17325756362004
C           -0.42865669434965        1.46234740106481       -0.08509932096109
C            0.23877901476248        2.67586052739159       -0.11388740686276
C            1.62984495726625        2.69800671784434       -0.25237329338070
C            2.34996716948224        1.53163455316200       -0.36200958959043
C            1.70545758505998        0.26659071427198       -0.34414724722758
C            0.27582354236065        0.23183742577470       -0.19784400185145
C           -0.44828863117941       -1.02447870075083       -0.16175472382344
O            0.12109335288819       -2.13542573608634       -0.24679510446314
N            2.42195094445131       -0.86958123407503       -0.48564432746887
C            3.87183220575263       -0.94866573104235       -0.53920368209715
C            4.51225739762985       -0.83147113434565        0.84626733733061
O            5.94228999272276       -0.86500184884999        0.75408877680002
H           -5.79138534027168       -1.00229644612268        0.33902325363157
H           -4.55306684146770       -3.14377985418342        0.14492392908899
H           -2.08787422378091       -3.13567447301483       -0.08155716662533
H           -4.55115717114775        1.14707514733831        0.30329775219612
H           -0.32228609881757        3.59820314954601       -0.02786757774348
H            2.15347489717520        3.64836443471636       -0.27211701975885
H            3.42684849855133        1.58221155297914       -0.46311148930138
H            1.88409459078118       -1.72722680801697       -0.41122568711363
H            4.28057957671772       -0.17940999832038       -1.20328748792198
H            4.12881040431114       -1.92058385554926       -0.97218385356708
H            4.14251602860104       -1.63475165684074        1.49751974581781
H            4.25390251471513        0.12811498856237        1.30459720812900
H            6.19628727095108       -1.75362052590949        0.47176884769857
