 xtb: 6.7.1 (edcfbbe)
          04112512363D

 16 15  0     0  0            999 V2000
    1.9577   -0.6884   -0.1770 C   0  0  0  0  0  0  0  0  0  0  0  0
    1.0824    0.2608    0.6330 C   0  0  0  0  0  0  0  0  0  0  0  0
    0.0286    0.9742   -0.2144 C   0  0  0  0  0  0  0  0  0  0  0  0
   -1.0911    0.0497   -0.6928 C   0  0  0  0  0  0  0  0  0  0  0  0
   -1.8096   -0.5211    0.4394 N   0  0  0  0  0  0  0  0  0  0  0  0
    2.7352   -1.1122    0.4539 H   0  0  0  0  0  0  0  0  0  0  0  0
    1.3694   -1.5064   -0.5830 H   0  0  0  0  0  0  0  0  0  0  0  0
    2.4331   -0.1610   -1.0016 H   0  0  0  0  0  0  0  0  0  0  0  0
    0.5751   -0.2949    1.4218 H   0  0  0  0  0  0  0  0  0  0  0  0
    1.7183    1.0151    1.1017 H   0  0  0  0  0  0  0  0  0  0  0  0
   -0.4175    1.7764    0.3791 H   0  0  0  0  0  0  0  0  0  0  0  0
    0.5034    1.4280   -1.0867 H   0  0  0  0  0  0  0  0  0  0  0  0
   -0.6699   -0.7792   -1.2665 H   0  0  0  0  0  0  0  0  0  0  0  0
   -1.7485    0.6223   -1.3717 H   0  0  0  0  0  0  0  0  0  0  0  0
   -2.5565   -1.1195    0.1063 H   0  0  0  0  0  0  0  0  0  0  0  0
   -2.2320    0.2243    0.9837 H   0  0  0  0  0  0  0  0  0  0  0  0
  1  2  1  0  0  0  0
  2  3  1  0  0  0  0
  3  4  1  0  0  0  0
  4  5  1  0  0  0  0
  1  6  1  0  0  0  0
  1  7  1  0  0  0  0
  1  8  1  0  0  0  0
  2  9  1  0  0  0  0
  2 10  1  0  0  0  0
  3 11  1  0  0  0  0
  3 12  1  0  0  0  0
  4 13  1  0  0  0  0
  4 14  1  0  0  0  0
  5 15  1  0  0  0  0
  5 16  1  0  0  0  0
M  END
