 xtb: 6.7.1 (edcfbbe)
          04112513033D

 22 21  0     0  0            999 V2000
    2.1913    1.1402   -0.4738 C   0  0  0  0  0  0  0  0  0  0  0  0
    1.1942    0.2761    0.2982 C   0  0  0  0  0  0  0  0  0  0  0  0
    1.8533   -1.0451    0.7189 C   0  0  0  0  0  0  0  0  0  0  0  0
    0.0085    0.0975   -0.5264 N   0  0  0  0  0  0  0  0  0  0  0  0
   -1.2105   -0.3171    0.1583 C   0  0  0  0  0  0  0  0  0  0  0  0
   -2.1417   -0.9979   -0.8414 C   0  0  0  0  0  0  0  0  0  0  0  0
   -1.8957    0.9116    0.7609 C   0  0  0  0  0  0  0  0  0  0  0  0
    1.7192    2.0720   -0.7699 H   0  0  0  0  0  0  0  0  0  0  0  0
    3.0583    1.3605    0.1426 H   0  0  0  0  0  0  0  0  0  0  0  0
    2.5216    0.6202   -1.3699 H   0  0  0  0  0  0  0  0  0  0  0  0
    0.8851    0.8179    1.1989 H   0  0  0  0  0  0  0  0  0  0  0  0
    2.1980   -1.5875   -0.1599 H   0  0  0  0  0  0  0  0  0  0  0  0
    1.1501   -1.6748    1.2605 H   0  0  0  0  0  0  0  0  0  0  0  0
    2.7058   -0.8524    1.3645 H   0  0  0  0  0  0  0  0  0  0  0  0
    0.2240   -0.5515   -1.2763 H   0  0  0  0  0  0  0  0  0  0  0  0
   -0.9958   -1.0310    0.9762 H   0  0  0  0  0  0  0  0  0  0  0  0
   -1.6869   -1.9046   -1.2356 H   0  0  0  0  0  0  0  0  0  0  0  0
   -3.0795   -1.2640   -0.3613 H   0  0  0  0  0  0  0  0  0  0  0  0
   -2.3490   -0.3227   -1.6675 H   0  0  0  0  0  0  0  0  0  0  0  0
   -2.8155    0.6205    1.2609 H   0  0  0  0  0  0  0  0  0  0  0  0
   -2.1263    1.6220   -0.0277 H   0  0  0  0  0  0  0  0  0  0  0  0
   -1.2488    1.3995    1.4847 H   0  0  0  0  0  0  0  0  0  0  0  0
  1  2  1  0  0  0  0
  2  3  1  0  0  0  0
  2  4  1  0  0  0  0
  4  5  1  0  0  0  0
  5  6  1  0  0  0  0
  5  7  1  0  0  0  0
  1  8  1  0  0  0  0
  1  9  1  0  0  0  0
  1 10  1  0  0  0  0
  2 11  1  0  0  0  0
  3 12  1  0  0  0  0
  3 13  1  0  0  0  0
  3 14  1  0  0  0  0
  4 15  1  0  0  0  0
  5 16  1  0  0  0  0
  6 17  1  0  0  0  0
  6 18  1  0  0  0  0
  6 19  1  0  0  0  0
  7 20  1  0  0  0  0
  7 21  1  0  0  0  0
  7 22  1  0  0  0  0
M  END
