 xtb: 6.7.1 (edcfbbe)
          04112515533D

 20 19  0     0  0            999 V2000
   -3.6427   -0.7312    0.2358 C   0  0  0  0  0  0  0  0  0  0  0  0
   -2.3887    0.1287    0.3226 C   0  0  0  0  0  0  0  0  0  0  0  0
   -1.1749   -0.5921   -0.2653 C   0  0  0  0  0  0  0  0  0  0  0  0
    0.0411    0.2959   -0.2988 C   0  0  0  0  0  0  0  0  0  0  0  0
    0.0284    1.4914   -0.5100 O   0  0  0  0  0  0  0  0  0  0  0  0
    1.1523   -0.3921   -0.0746 O   0  0  0  0  0  0  0  0  0  0  0  0
    2.4074    0.3110   -0.0878 C   0  0  0  0  0  0  0  0  0  0  0  0
    3.4296   -0.5253    0.6582 C   0  0  0  0  0  0  0  0  0  0  0  0
   -4.4888   -0.2061    0.6703 H   0  0  0  0  0  0  0  0  0  0  0  0
   -3.8761   -0.9629   -0.8002 H   0  0  0  0  0  0  0  0  0  0  0  0
   -3.5017   -1.6644    0.7754 H   0  0  0  0  0  0  0  0  0  0  0  0
   -2.1857    0.3808    1.3652 H   0  0  0  0  0  0  0  0  0  0  0  0
   -2.5348    1.0651   -0.2190 H   0  0  0  0  0  0  0  0  0  0  0  0
   -1.3900   -0.8787   -1.2979 H   0  0  0  0  0  0  0  0  0  0  0  0
   -0.9322   -1.4943    0.2955 H   0  0  0  0  0  0  0  0  0  0  0  0
    2.6992    0.4640   -1.1316 H   0  0  0  0  0  0  0  0  0  0  0  0
    2.2600    1.2912    0.3771 H   0  0  0  0  0  0  0  0  0  0  0  0
    3.1168   -0.6672    1.6885 H   0  0  0  0  0  0  0  0  0  0  0  0
    3.5284   -1.4976    0.1849 H   0  0  0  0  0  0  0  0  0  0  0  0
    4.3887   -0.0184    0.6420 H   0  0  0  0  0  0  0  0  0  0  0  0
  1  2  1  0  0  0  0
  2  3  1  0  0  0  0
  3  4  1  0  0  0  0
  4  5  2  0  0  0  0
  4  6  1  0  0  0  0
  6  7  1  0  0  0  0
  7  8  1  0  0  0  0
  1  9  1  0  0  0  0
  1 10  1  0  0  0  0
  1 11  1  0  0  0  0
  2 12  1  0  0  0  0
  2 13  1  0  0  0  0
  3 14  1  0  0  0  0
  3 15  1  0  0  0  0
  7 16  1  0  0  0  0
  7 17  1  0  0  0  0
  8 18  1  0  0  0  0
  8 19  1  0  0  0  0
  8 20  1  0  0  0  0
M  END
