 xtb: 6.7.1 (edcfbbe)
          04112512273D

 13 13  0     0  0            999 V2000
   -2.0245   -0.8130   -0.4392 C   0  0  0  0  0  0  0  0  0  0  0  0
   -1.5215    0.2482    0.5336 C   0  0  0  0  0  0  0  0  0  0  0  0
   -0.2845    0.9620    0.0049 C   0  0  0  0  0  0  0  0  0  0  0  0
    0.8994    0.1049   -0.0147 N   0  0  0  0  0  0  0  0  0  0  0  0
    1.7965    0.4189   -0.7748 O   0  0  0  0  0  0  0  0  0  0  0  0
    0.9528   -0.8518    0.7266 O   0  0  0  0  0  0  0  0  0  0  0  0
   -2.9273   -1.2766   -0.0528 H   0  0  0  0  0  0  0  0  0  0  0  0
   -2.2513   -0.3728   -1.4072 H   0  0  0  0  0  0  0  0  0  0  0  0
   -1.2790   -1.5934   -0.5770 H   0  0  0  0  0  0  0  0  0  0  0  0
   -1.2866   -0.2167    1.4918 H   0  0  0  0  0  0  0  0  0  0  0  0
   -2.2988    0.9941    0.6955 H   0  0  0  0  0  0  0  0  0  0  0  0
   -0.4225    1.3358   -1.0117 H   0  0  0  0  0  0  0  0  0  0  0  0
   -0.0287    1.8104    0.6469 H   0  0  0  0  0  0  0  0  0  0  0  0
  1  2  1  0  0  0  0
  2  3  1  0  0  0  0
  3  4  1  0  0  0  0
  4  5  4  0  0  0  0
  4  6  4  0  0  0  0
  5  6  1  0  0  0  0
  1  7  1  0  0  0  0
  1  8  1  0  0  0  0
  1  9  1  0  0  0  0
  2 10  1  0  0  0  0
  2 11  1  0  0  0  0
  3 12  1  0  0  0  0
  3 13  1  0  0  0  0
M  END
