 xtb: 6.7.1 (edcfbbe)
          04112515533D

 20 19  0     0  0            999 V2000
   -2.3354   -1.2113   -0.6083 C   0  0  0  0  0  0  0  0  0  0  0  0
   -2.0062   -0.5606    0.7298 C   0  0  0  0  0  0  0  0  0  0  0  0
   -1.4381    0.8521    0.5488 C   0  0  0  0  0  0  0  0  0  0  0  0
   -0.1166    0.8264   -0.1758 C   0  0  0  0  0  0  0  0  0  0  0  0
    0.1073    1.3884   -1.2295 O   0  0  0  0  0  0  0  0  0  0  0  0
    0.7891    0.1128    0.4759 O   0  0  0  0  0  0  0  0  0  0  0  0
    2.0982   -0.0256   -0.0998 C   0  0  0  0  0  0  0  0  0  0  0  0
    2.7302   -1.2936    0.4431 C   0  0  0  0  0  0  0  0  0  0  0  0
   -3.0770   -0.6248   -1.1457 H   0  0  0  0  0  0  0  0  0  0  0  0
   -1.4456   -1.2800   -1.2316 H   0  0  0  0  0  0  0  0  0  0  0  0
   -2.7290   -2.2129   -0.4575 H   0  0  0  0  0  0  0  0  0  0  0  0
   -1.2775   -1.1679    1.2679 H   0  0  0  0  0  0  0  0  0  0  0  0
   -2.9113   -0.4953    1.3345 H   0  0  0  0  0  0  0  0  0  0  0  0
   -1.2712    1.3039    1.5274 H   0  0  0  0  0  0  0  0  0  0  0  0
   -2.1253    1.4739   -0.0250 H   0  0  0  0  0  0  0  0  0  0  0  0
    1.9988   -0.0503   -1.1900 H   0  0  0  0  0  0  0  0  0  0  0  0
    2.6813    0.8593    0.1743 H   0  0  0  0  0  0  0  0  0  0  0  0
    2.1437   -2.1607    0.1532 H   0  0  0  0  0  0  0  0  0  0  0  0
    3.7343   -1.3928    0.0443 H   0  0  0  0  0  0  0  0  0  0  0  0
    2.7769   -1.2483    1.5270 H   0  0  0  0  0  0  0  0  0  0  0  0
  1  2  1  0  0  0  0
  2  3  1  0  0  0  0
  3  4  1  0  0  0  0
  4  5  2  0  0  0  0
  4  6  1  0  0  0  0
  6  7  1  0  0  0  0
  7  8  1  0  0  0  0
  1  9  1  0  0  0  0
  1 10  1  0  0  0  0
  1 11  1  0  0  0  0
  2 12  1  0  0  0  0
  2 13  1  0  0  0  0
  3 14  1  0  0  0  0
  3 15  1  0  0  0  0
  7 16  1  0  0  0  0
  7 17  1  0  0  0  0
  8 18  1  0  0  0  0
  8 19  1  0  0  0  0
  8 20  1  0  0  0  0
M  END
