 xtb: 6.7.1 (edcfbbe)
          04112515593D

 20 19  0     0  0            999 V2000
   -3.7787    0.0972    0.6251 C   0  0  0  0  0  0  0  0  0  0  0  0
   -2.6574   -0.5260   -0.1977 C   0  0  0  0  0  0  0  0  0  0  0  0
   -1.3044    0.0946    0.1415 C   0  0  0  0  0  0  0  0  0  0  0  0
   -0.1741   -0.5274   -0.6898 C   0  0  0  0  0  0  0  0  0  0  0  0
    1.1233    0.1668   -0.3750 C   0  0  0  0  0  0  0  0  0  0  0  0
    1.3988    1.3039   -0.6971 O   0  0  0  0  0  0  0  0  0  0  0  0
    1.9328   -0.6065    0.3384 O   0  0  0  0  0  0  0  0  0  0  0  0
    3.1958   -0.0722    0.7467 C   0  0  0  0  0  0  0  0  0  0  0  0
   -4.7339   -0.3537    0.3689 H   0  0  0  0  0  0  0  0  0  0  0  0
   -3.6010   -0.0522    1.6875 H   0  0  0  0  0  0  0  0  0  0  0  0
   -3.8407    1.1663    0.4357 H   0  0  0  0  0  0  0  0  0  0  0  0
   -2.6191   -1.5998   -0.0063 H   0  0  0  0  0  0  0  0  0  0  0  0
   -2.8635   -0.3826   -1.2599 H   0  0  0  0  0  0  0  0  0  0  0  0
   -1.0924   -0.0510    1.2029 H   0  0  0  0  0  0  0  0  0  0  0  0
   -1.3316    1.1694   -0.0509 H   0  0  0  0  0  0  0  0  0  0  0  0
   -0.3906   -0.3892   -1.7496 H   0  0  0  0  0  0  0  0  0  0  0  0
   -0.0735   -1.5881   -0.4649 H   0  0  0  0  0  0  0  0  0  0  0  0
    3.0925    0.9867    0.9862 H   0  0  0  0  0  0  0  0  0  0  0  0
    3.9181   -0.1906   -0.0613 H   0  0  0  0  0  0  0  0  0  0  0  0
    3.4966   -0.6464    1.6178 H   0  0  0  0  0  0  0  0  0  0  0  0
  1  2  1  0  0  0  0
  2  3  1  0  0  0  0
  3  4  1  0  0  0  0
  4  5  1  0  0  0  0
  5  6  2  0  0  0  0
  5  7  1  0  0  0  0
  7  8  1  0  0  0  0
  1  9  1  0  0  0  0
  1 10  1  0  0  0  0
  1 11  1  0  0  0  0
  2 12  1  0  0  0  0
  2 13  1  0  0  0  0
  3 14  1  0  0  0  0
  3 15  1  0  0  0  0
  4 16  1  0  0  0  0
  4 17  1  0  0  0  0
  8 18  1  0  0  0  0
  8 19  1  0  0  0  0
  8 20  1  0  0  0  0
M  END
