 xtb: 6.7.1 (edcfbbe)
          04112514553D

 31 32  0     0  0            999 V2000
   -3.7118    0.5118   -1.9464 C   0  0  0  0  0  0  0  0  0  0  0  0
   -3.2928   -0.3735   -0.7714 C   0  0  0  0  0  0  0  0  0  0  0  0
   -3.5988   -1.4079   -0.9428 H   0  0  0  0  0  0  0  0  0  0  0  0
   -1.7955   -0.3323   -0.5614 C   0  0  0  0  0  0  0  0  0  0  0  0
   -1.0147   -1.4627   -0.7649 C   0  0  0  0  0  0  0  0  0  0  0  0
    0.3554   -1.4144   -0.5935 C   0  0  0  0  0  0  0  0  0  0  0  0
    1.0020   -0.2401   -0.2115 C   0  0  0  0  0  0  0  0  0  0  0  0
    0.1930    0.8731   -0.0047 C   0  0  0  0  0  0  0  0  0  0  0  0
   -1.1758    0.8474   -0.1695 C   0  0  0  0  0  0  0  0  0  0  0  0
    0.7537    2.0481    0.4103 F   0  0  0  0  0  0  0  0  0  0  0  0
    2.4622   -0.2012   -0.0345 C   0  0  0  0  0  0  0  0  0  0  0  0
    3.2194    0.8489   -0.5468 C   0  0  0  0  0  0  0  0  0  0  0  0
    4.5926    0.8653   -0.3836 C   0  0  0  0  0  0  0  0  0  0  0  0
    5.2269   -0.1621    0.2946 C   0  0  0  0  0  0  0  0  0  0  0  0
    4.4809   -1.2102    0.8084 C   0  0  0  0  0  0  0  0  0  0  0  0
    3.1087   -1.2328    0.6431 C   0  0  0  0  0  0  0  0  0  0  0  0
   -3.9370    0.0907    0.5201 C   0  0  0  0  0  0  0  0  0  0  0  0
   -4.1403    1.2461    0.8204 O   0  0  0  0  0  0  0  0  0  0  0  0
   -4.2275   -0.9219    1.3181 O   0  0  0  0  0  0  0  0  0  0  0  0
   -3.1520    0.2338   -2.8345 H   0  0  0  0  0  0  0  0  0  0  0  0
   -4.7740    0.3953   -2.1438 H   0  0  0  0  0  0  0  0  0  0  0  0
   -3.5177    1.5559   -1.7161 H   0  0  0  0  0  0  0  0  0  0  0  0
   -1.4812   -2.3877   -1.0650 H   0  0  0  0  0  0  0  0  0  0  0  0
    0.9499   -2.2963   -0.7732 H   0  0  0  0  0  0  0  0  0  0  0  0
   -1.7483    1.7412    0.0253 H   0  0  0  0  0  0  0  0  0  0  0  0
    2.7329    1.6491   -1.0845 H   0  0  0  0  0  0  0  0  0  0  0  0
    5.1685    1.6838   -0.7883 H   0  0  0  0  0  0  0  0  0  0  0  0
    6.2984   -0.1450    0.4231 H   0  0  0  0  0  0  0  0  0  0  0  0
    4.9701   -2.0117    1.3410 H   0  0  0  0  0  0  0  0  0  0  0  0
    2.5272   -2.0424    1.0579 H   0  0  0  0  0  0  0  0  0  0  0  0
   -4.6117   -0.6405    2.1717 H   0  0  0  0  0  0  0  0  0  0  0  0
  1  2  1  0  0  0  0
  2  3  1  0  0  0  0
  2  4  1  0  0  0  0
  4  5  4  0  0  0  0
  5  6  4  0  0  0  0
  6  7  4  0  0  0  0
  7  8  4  0  0  0  0
  4  9  4  0  0  0  0
  8  9  4  0  0  0  0
  8 10  1  0  0  0  0
  7 11  1  0  0  0  0
 11 12  4  0  0  0  0
 12 13  4  0  0  0  0
 13 14  4  0  0  0  0
 14 15  4  0  0  0  0
 11 16  4  0  0  0  0
 15 16  4  0  0  0  0
  2 17  1  0  0  0  0
 17 18  2  0  0  0  0
 17 19  1  0  0  0  0
  1 20  1  0  0  0  0
  1 21  1  0  0  0  0
  1 22  1  0  0  0  0
  5 23  1  0  0  0  0
  6 24  1  0  0  0  0
  9 25  1  0  0  0  0
 12 26  1  0  0  0  0
 13 27  1  0  0  0  0
 14 28  1  0  0  0  0
 15 29  1  0  0  0  0
 16 30  1  0  0  0  0
 19 31  1  0  0  0  0
M  END
