 xtb: 6.7.1 (edcfbbe)
          04112515533D

 20 19  0     0  0            999 V2000
   -3.3154   -1.0876    0.1051 C   0  0  0  0  0  0  0  0  0  0  0  0
   -1.8700   -0.7227    0.4176 C   0  0  0  0  0  0  0  0  0  0  0  0
   -1.3558    0.3698   -0.5322 C   0  0  0  0  0  0  0  0  0  0  0  0
    0.0640    0.7097   -0.1688 C   0  0  0  0  0  0  0  0  0  0  0  0
    0.3908    1.5938    0.5960 O   0  0  0  0  0  0  0  0  0  0  0  0
    0.9261   -0.1002   -0.7699 O   0  0  0  0  0  0  0  0  0  0  0  0
    2.3246    0.0405   -0.4688 C   0  0  0  0  0  0  0  0  0  0  0  0
    2.7035   -0.7669    0.7633 C   0  0  0  0  0  0  0  0  0  0  0  0
   -3.6614   -1.8610    0.7854 H   0  0  0  0  0  0  0  0  0  0  0  0
   -3.9597   -0.2190    0.2136 H   0  0  0  0  0  0  0  0  0  0  0  0
   -3.4026   -1.4576   -0.9131 H   0  0  0  0  0  0  0  0  0  0  0  0
   -1.2364   -1.6059    0.3179 H   0  0  0  0  0  0  0  0  0  0  0  0
   -1.7923   -0.3639    1.4462 H   0  0  0  0  0  0  0  0  0  0  0  0
   -1.9678    1.2654   -0.4301 H   0  0  0  0  0  0  0  0  0  0  0  0
   -1.3850    0.0064   -1.5586 H   0  0  0  0  0  0  0  0  0  0  0  0
    2.8360   -0.3281   -1.3585 H   0  0  0  0  0  0  0  0  0  0  0  0
    2.5428    1.1018   -0.3160 H   0  0  0  0  0  0  0  0  0  0  0  0
    3.7728   -0.6887    0.9297 H   0  0  0  0  0  0  0  0  0  0  0  0
    2.1812   -0.3811    1.6360 H   0  0  0  0  0  0  0  0  0  0  0  0
    2.4372   -1.8112    0.6238 H   0  0  0  0  0  0  0  0  0  0  0  0
  1  2  1  0  0  0  0
  2  3  1  0  0  0  0
  3  4  1  0  0  0  0
  4  5  2  0  0  0  0
  4  6  1  0  0  0  0
  6  7  1  0  0  0  0
  7  8  1  0  0  0  0
  1  9  1  0  0  0  0
  1 10  1  0  0  0  0
  1 11  1  0  0  0  0
  2 12  1  0  0  0  0
  2 13  1  0  0  0  0
  3 14  1  0  0  0  0
  3 15  1  0  0  0  0
  7 16  1  0  0  0  0
  7 17  1  0  0  0  0
  8 18  1  0  0  0  0
  8 19  1  0  0  0  0
  8 20  1  0  0  0  0
M  END
