 xtb: 6.7.1 (edcfbbe)
          04112516443D

 20 19  0     0  0            999 V2000
   -2.5774   -1.0442   -0.5747 C   0  0  0  0  0  0  0  0  0  0  0  0
   -2.0861   -0.5073    0.7641 C   0  0  0  0  0  0  0  0  0  0  0  0
   -1.3687    0.8415    0.6126 C   0  0  0  0  0  0  0  0  0  0  0  0
   -0.1269    0.6958   -0.2275 C   0  0  0  0  0  0  0  0  0  0  0  0
    0.0123    1.1403   -1.3494 O   0  0  0  0  0  0  0  0  0  0  0  0
    0.8164    0.0096    0.4014 O   0  0  0  0  0  0  0  0  0  0  0  0
    2.0535   -0.2217   -0.2924 C   0  0  0  0  0  0  0  0  0  0  0  0
    3.0664   -0.7564    0.7013 C   0  0  0  0  0  0  0  0  0  0  0  0
   -3.2621   -0.3393   -1.0403 H   0  0  0  0  0  0  0  0  0  0  0  0
   -1.7441   -1.2016   -1.2571 H   0  0  0  0  0  0  0  0  0  0  0  0
   -3.0942   -1.9903   -0.4376 H   0  0  0  0  0  0  0  0  0  0  0  0
   -1.4012   -1.2226    1.2218 H   0  0  0  0  0  0  0  0  0  0  0  0
   -2.9357   -0.3706    1.4339 H   0  0  0  0  0  0  0  0  0  0  0  0
   -1.0732    1.2051    1.5967 H   0  0  0  0  0  0  0  0  0  0  0  0
   -2.0230    1.5669    0.1296 H   0  0  0  0  0  0  0  0  0  0  0  0
    1.8652   -0.9365   -1.1003 H   0  0  0  0  0  0  0  0  0  0  0  0
    2.3801    0.7221   -0.7418 H   0  0  0  0  0  0  0  0  0  0  0  0
    3.2343   -0.0304    1.4913 H   0  0  0  0  0  0  0  0  0  0  0  0
    2.7017   -1.6783    1.1442 H   0  0  0  0  0  0  0  0  0  0  0  0
    4.0026   -0.9506    0.1885 H   0  0  0  0  0  0  0  0  0  0  0  0
  1  2  1  0  0  0  0
  2  3  1  0  0  0  0
  3  4  1  0  0  0  0
  4  5  2  0  0  0  0
  4  6  1  0  0  0  0
  6  7  1  0  0  0  0
  7  8  1  0  0  0  0
  1  9  1  0  0  0  0
  1 10  1  0  0  0  0
  1 11  1  0  0  0  0
  2 12  1  0  0  0  0
  2 13  1  0  0  0  0
  3 14  1  0  0  0  0
  3 15  1  0  0  0  0
  7 16  1  0  0  0  0
  7 17  1  0  0  0  0
  8 18  1  0  0  0  0
  8 19  1  0  0  0  0
  8 20  1  0  0  0  0
M  END
