 xtb: 6.7.1 (edcfbbe)
          04112517463D

 20 19  0     0  0            999 V2000
   -2.3583   -1.3802   -0.2996 C   0  0  0  0  0  0  0  0  0  0  0  0
   -2.5325    0.0893    0.0641 C   0  0  0  0  0  0  0  0  0  0  0  0
   -1.3182    0.6299    0.8273 C   0  0  0  0  0  0  0  0  0  0  0  0
   -0.0995    0.6492   -0.0586 C   0  0  0  0  0  0  0  0  0  0  0  0
   -0.0233    1.2232   -1.1261 O   0  0  0  0  0  0  0  0  0  0  0  0
    0.9013   -0.0460    0.4623 O   0  0  0  0  0  0  0  0  0  0  0  0
    2.1319   -0.1108   -0.2781 C   0  0  0  0  0  0  0  0  0  0  0  0
    3.1076   -0.9715    0.5006 C   0  0  0  0  0  0  0  0  0  0  0  0
   -1.4998   -1.5100   -0.9562 H   0  0  0  0  0  0  0  0  0  0  0  0
   -2.2013   -1.9791    0.5941 H   0  0  0  0  0  0  0  0  0  0  0  0
   -3.2407   -1.7501   -0.8148 H   0  0  0  0  0  0  0  0  0  0  0  0
   -3.4200    0.2108    0.6854 H   0  0  0  0  0  0  0  0  0  0  0  0
   -2.6644    0.6802   -0.8444 H   0  0  0  0  0  0  0  0  0  0  0  0
   -1.1028    0.0185    1.7026 H   0  0  0  0  0  0  0  0  0  0  0  0
   -1.5146    1.6571    1.1384 H   0  0  0  0  0  0  0  0  0  0  0  0
    1.9186   -0.5292   -1.2674 H   0  0  0  0  0  0  0  0  0  0  0  0
    2.5066    0.9090   -0.4146 H   0  0  0  0  0  0  0  0  0  0  0  0
    4.0450   -1.0329   -0.0421 H   0  0  0  0  0  0  0  0  0  0  0  0
    3.2867   -0.5368    1.4794 H   0  0  0  0  0  0  0  0  0  0  0  0
    2.7010   -1.9701    0.6298 H   0  0  0  0  0  0  0  0  0  0  0  0
  1  2  1  0  0  0  0
  2  3  1  0  0  0  0
  3  4  1  0  0  0  0
  4  5  2  0  0  0  0
  4  6  1  0  0  0  0
  6  7  1  0  0  0  0
  7  8  1  0  0  0  0
  1  9  1  0  0  0  0
  1 10  1  0  0  0  0
  1 11  1  0  0  0  0
  2 12  1  0  0  0  0
  2 13  1  0  0  0  0
  3 14  1  0  0  0  0
  3 15  1  0  0  0  0
  7 16  1  0  0  0  0
  7 17  1  0  0  0  0
  8 18  1  0  0  0  0
  8 19  1  0  0  0  0
  8 20  1  0  0  0  0
M  END
