 xtb: 6.7.1 (edcfbbe)
          04112515543D

 17 16  0     0  0            999 V2000
    3.1399   -0.7599    0.1260 C   0  0  0  0  0  0  0  0  0  0  0  0
    1.9559    0.1303    0.4860 C   0  0  0  0  0  0  0  0  0  0  0  0
    1.0104    0.3062   -0.7010 C   0  0  0  0  0  0  0  0  0  0  0  0
   -0.1367    1.2808   -0.4292 C   0  0  0  0  0  0  0  0  0  0  0  0
   -1.1535    0.7736    0.5784 C   0  0  0  0  0  0  0  0  0  0  0  0
   -2.0079   -0.6877   -0.0366 Cl  0  0  0  0  0  0  0  0  0  0  0  0
    2.7950   -1.7442   -0.1833 H   0  0  0  0  0  0  0  0  0  0  0  0
    3.8018   -0.8808    0.9800 H   0  0  0  0  0  0  0  0  0  0  0  0
    3.7099   -0.3254   -0.6922 H   0  0  0  0  0  0  0  0  0  0  0  0
    1.4212   -0.3168    1.3255 H   0  0  0  0  0  0  0  0  0  0  0  0
    2.3221    1.1089    0.8041 H   0  0  0  0  0  0  0  0  0  0  0  0
    0.5977   -0.6645   -0.9834 H   0  0  0  0  0  0  0  0  0  0  0  0
    1.5840    0.6800   -1.5516 H   0  0  0  0  0  0  0  0  0  0  0  0
   -0.6495    1.4984   -1.3676 H   0  0  0  0  0  0  0  0  0  0  0  0
    0.2677    2.2170   -0.0388 H   0  0  0  0  0  0  0  0  0  0  0  0
   -0.6884    0.4780    1.5159 H   0  0  0  0  0  0  0  0  0  0  0  0
   -1.9290    1.5144    0.7631 H   0  0  0  0  0  0  0  0  0  0  0  0
  1  2  1  0  0  0  0
  2  3  1  0  0  0  0
  3  4  1  0  0  0  0
  4  5  1  0  0  0  0
  5  6  1  0  0  0  0
  1  7  1  0  0  0  0
  1  8  1  0  0  0  0
  1  9  1  0  0  0  0
  2 10  1  0  0  0  0
  2 11  1  0  0  0  0
  3 12  1  0  0  0  0
  3 13  1  0  0  0  0
  4 14  1  0  0  0  0
  4 15  1  0  0  0  0
  5 16  1  0  0  0  0
  5 17  1  0  0  0  0
M  END
