20
 xtb: 6.7.1 (edcfbbe)
C           -3.68856433763220       -0.73317658789372        0.18283550520979
C           -2.49180830498362        0.19807824407002        0.01734709776215
C           -1.17659907279772       -0.56931749197654        0.07810662665019
C            0.03569895998172        0.30225419866748       -0.08686997501149
O            0.02420441702175        1.46435220554471       -0.46077009158788
O            1.16756202370096       -0.36112242645933        0.21406889724534
C            2.42127899391452        0.37667199703877        0.04376362539002
C            3.53868049063342       -0.54794724268601        0.45279916058320
H           -3.71019514374661       -1.48881257654495       -0.60997216765339
H           -3.65038997510964       -1.25711904164094        1.14407910840680
H           -4.62876524435613       -0.17499707045089        0.14133092211731
H           -2.50044288290248        0.96185097203223        0.80350260572080
H           -2.56066968746276        0.72756703844943       -0.93898661156189
H           -1.13294023243086       -1.32611421249319       -0.71741945937049
H           -1.07978999023590       -1.11923690369982        1.02123834359129
H            2.50114514862642        0.67917985430269       -1.00471586393785
H            2.38078830282240        1.27286081601807        0.66979546454285
H            3.44114574731570       -0.84293428283191        1.50162477215308
H            3.55421146144592       -1.44715061809662       -0.16981103903877
H            4.49415085250839       -0.02920417500336        0.33000827505916
