 xtb: 6.7.1 (edcfbbe)
          04112512333D

 13 13  0     0  0            999 V2000
   -2.0268    0.4409    0.6923 C   0  0  0  0  0  0  0  0  0  0  0  0
   -1.4866   -0.5937   -0.2873 C   0  0  0  0  0  0  0  0  0  0  0  0
   -0.2322   -0.0904   -1.0090 C   0  0  0  0  0  0  0  0  0  0  0  0
    0.8686    0.0284   -0.0596 N   0  0  0  0  0  0  0  0  0  0  0  0
    1.3571    1.1258    0.1203 O   0  0  0  0  0  0  0  0  0  0  0  0
    1.2372   -0.9760    0.5139 O   0  0  0  0  0  0  0  0  0  0  0  0
   -1.2976    0.6619    1.4700 H   0  0  0  0  0  0  0  0  0  0  0  0
   -2.2693    1.3678    0.1785 H   0  0  0  0  0  0  0  0  0  0  0  0
   -2.9275    0.0679    1.1711 H   0  0  0  0  0  0  0  0  0  0  0  0
   -2.2421   -0.8186   -1.0390 H   0  0  0  0  0  0  0  0  0  0  0  0
   -1.2398   -1.5163    0.2407 H   0  0  0  0  0  0  0  0  0  0  0  0
    0.0686   -0.8172   -1.7660 H   0  0  0  0  0  0  0  0  0  0  0  0
   -0.3923    0.8921   -1.4538 H   0  0  0  0  0  0  0  0  0  0  0  0
  1  2  1  0  0  0  0
  2  3  1  0  0  0  0
  3  4  1  0  0  0  0
  4  5  4  0  0  0  0
  4  6  4  0  0  0  0
  5  6  1  0  0  0  0
  1  7  1  0  0  0  0
  1  8  1  0  0  0  0
  1  9  1  0  0  0  0
  2 10  1  0  0  0  0
  2 11  1  0  0  0  0
  3 12  1  0  0  0  0
  3 13  1  0  0  0  0
M  END
