 xtb: 6.7.1 (edcfbbe)
          04112515533D

 20 19  0     0  0            999 V2000
   -2.4020   -1.3676   -0.2972 C   0  0  0  0  0  0  0  0  0  0  0  0
   -2.5426    0.1041    0.0723 C   0  0  0  0  0  0  0  0  0  0  0  0
   -1.3100    0.6164    0.8242 C   0  0  0  0  0  0  0  0  0  0  0  0
   -0.0993    0.6257   -0.0730 C   0  0  0  0  0  0  0  0  0  0  0  0
   -0.0437    1.1558   -1.1642 O   0  0  0  0  0  0  0  0  0  0  0  0
    0.9219   -0.0215    0.4701 O   0  0  0  0  0  0  0  0  0  0  0  0
    2.1504   -0.0852   -0.2740 C   0  0  0  0  0  0  0  0  0  0  0  0
    3.1339   -0.9332    0.5085 C   0  0  0  0  0  0  0  0  0  0  0  0
   -2.2508   -1.9728    0.5934 H   0  0  0  0  0  0  0  0  0  0  0  0
   -3.2957   -1.7174   -0.8068 H   0  0  0  0  0  0  0  0  0  0  0  0
   -1.5514   -1.5126   -0.9607 H   0  0  0  0  0  0  0  0  0  0  0  0
   -3.4216    0.2419    0.7022 H   0  0  0  0  0  0  0  0  0  0  0  0
   -2.6705    0.6996   -0.8335 H   0  0  0  0  0  0  0  0  0  0  0  0
   -1.0937   -0.0035    1.6933 H   0  0  0  0  0  0  0  0  0  0  0  0
   -1.4838    1.6443    1.1472 H   0  0  0  0  0  0  0  0  0  0  0  0
    1.9363   -0.5125   -1.2594 H   0  0  0  0  0  0  0  0  0  0  0  0
    2.5187    0.9356   -0.4195 H   0  0  0  0  0  0  0  0  0  0  0  0
    3.3116   -0.4903    1.4839 H   0  0  0  0  0  0  0  0  0  0  0  0
    2.7353   -1.9340    0.6456 H   0  0  0  0  0  0  0  0  0  0  0  0
    4.0707   -0.9914   -0.0356 H   0  0  0  0  0  0  0  0  0  0  0  0
  1  2  1  0  0  0  0
  2  3  1  0  0  0  0
  3  4  1  0  0  0  0
  4  5  2  0  0  0  0
  4  6  1  0  0  0  0
  6  7  1  0  0  0  0
  7  8  1  0  0  0  0
  1  9  1  0  0  0  0
  1 10  1  0  0  0  0
  1 11  1  0  0  0  0
  2 12  1  0  0  0  0
  2 13  1  0  0  0  0
  3 14  1  0  0  0  0
  3 15  1  0  0  0  0
  7 16  1  0  0  0  0
  7 17  1  0  0  0  0
  8 18  1  0  0  0  0
  8 19  1  0  0  0  0
  8 20  1  0  0  0  0
M  END
