17
 xtb: 6.7.1 (edcfbbe)
C            3.63218110344541       -0.52408288517881        0.14968455714605
C            2.16269313116800       -0.51434451227542       -0.26135949984962
C            1.41736502622269        0.69555429672531        0.30343855839331
C           -0.03431356615975        0.82881743856694       -0.17695830525348
C           -0.89038670965009       -0.30734586653064        0.33693301808480
Cl          -2.65512670724021       -0.07562207065463       -0.16079315640393
H            3.73301633107785       -0.55254694262078        1.24038197883686
H            4.14570010641441        0.37493134008324       -0.20895888148156
H            4.15603365838139       -1.39472028138635       -0.25741319892765
H            2.08376895740410       -0.50454066577846       -1.35642554571163
H            1.68734937287317       -1.44247162030795        0.07807029926372
H            1.95326471895705        1.60796716929149        0.01349097820373
H            1.43674316254653        0.65852040725891        1.40098029312437
H           -0.06216191014083        0.84607936597154       -1.27269953367494
H           -0.44751293753297        1.77846501916845        0.17942845584356
H           -0.60550612874227       -1.27673440818553       -0.07288784141349
H           -0.89764085947186       -0.35383994885892        1.42788343709641
