20
 xtb: 6.7.1 (edcfbbe)
C           -3.33041415644905       -1.13158417090298        0.31023770206409
C           -1.83546683017525       -0.95722966647997        0.05882581685681
C           -1.43743900852612        0.51637329893754        0.13406697771503
C           -0.00195231123543        0.84113977068120       -0.16924507621345
O            0.37687702032923        1.92226561927242       -0.59665059201708
O            0.83749221696795       -0.16919435434608        0.10719424136611
C            2.26119866314493        0.08838886164689       -0.11749048406817
C            3.00788116394993       -1.16337835668038        0.26524637753119
H           -3.61804843039322       -2.18610326370266        0.26042329687652
H           -3.60721084131952       -0.75294197649613        1.30029578694510
H           -3.92097329591029       -0.58588812156737       -0.43365565133466
H           -1.57438977985931       -1.35349985942082       -0.92928141240440
H           -1.26657753960696       -1.53390525510001        0.79479942850749
H           -1.62613695573765        0.90316225345098        1.14599649963451
H           -2.04750630394603        1.12100772149597       -0.54446509037246
H            2.40155819515852        0.34317538875710       -1.17202003520074
H            2.55524822258063        0.94478270907059        0.49650585877222
H            4.07780337222320       -1.00077856026908        0.10484943068906
H            2.85279362549985       -1.40870949255457        1.31971778970778
H            2.69440014939334       -2.01280021263069       -0.34826035333043
