 xtb: 6.7.1 (edcfbbe)
          04112515593D

 20 19  0     0  0            999 V2000
   -3.2858   -0.8594   -0.3342 C   0  0  0  0  0  0  0  0  0  0  0  0
   -1.8827   -0.6243    0.2122 C   0  0  0  0  0  0  0  0  0  0  0  0
   -1.5026    0.8543    0.1679 C   0  0  0  0  0  0  0  0  0  0  0  0
   -0.1131    1.1054    0.7620 C   0  0  0  0  0  0  0  0  0  0  0  0
    0.9531    0.4580   -0.0832 C   0  0  0  0  0  0  0  0  0  0  0  0
    1.1064    0.6477   -1.2719 O   0  0  0  0  0  0  0  0  0  0  0  0
    1.7121   -0.3591    0.6374 O   0  0  0  0  0  0  0  0  0  0  0  0
    2.7864   -1.0587    0.0007 C   0  0  0  0  0  0  0  0  0  0  0  0
   -3.5381   -1.9159   -0.2963 H   0  0  0  0  0  0  0  0  0  0  0  0
   -4.0179   -0.3081    0.2509 H   0  0  0  0  0  0  0  0  0  0  0  0
   -3.3510   -0.5267   -1.3676 H   0  0  0  0  0  0  0  0  0  0  0  0
   -1.8284   -0.9813    1.2429 H   0  0  0  0  0  0  0  0  0  0  0  0
   -1.1621   -1.1978   -0.3768 H   0  0  0  0  0  0  0  0  0  0  0  0
   -2.2365    1.4350    0.7279 H   0  0  0  0  0  0  0  0  0  0  0  0
   -1.5084    1.2003   -0.8677 H   0  0  0  0  0  0  0  0  0  0  0  0
   -0.0422    0.7116    1.7752 H   0  0  0  0  0  0  0  0  0  0  0  0
    0.0853    2.1783    0.7745 H   0  0  0  0  0  0  0  0  0  0  0  0
    2.7340   -0.9134   -1.0789 H   0  0  0  0  0  0  0  0  0  0  0  0
    2.6816   -2.1110    0.2550 H   0  0  0  0  0  0  0  0  0  0  0  0
    3.7247   -0.6661    0.3894 H   0  0  0  0  0  0  0  0  0  0  0  0
  1  2  1  0  0  0  0
  2  3  1  0  0  0  0
  3  4  1  0  0  0  0
  4  5  1  0  0  0  0
  5  6  2  0  0  0  0
  5  7  1  0  0  0  0
  7  8  1  0  0  0  0
  1  9  1  0  0  0  0
  1 10  1  0  0  0  0
  1 11  1  0  0  0  0
  2 12  1  0  0  0  0
  2 13  1  0  0  0  0
  3 14  1  0  0  0  0
  3 15  1  0  0  0  0
  4 16  1  0  0  0  0
  4 17  1  0  0  0  0
  8 18  1  0  0  0  0
  8 19  1  0  0  0  0
  8 20  1  0  0  0  0
M  END
