17
 xtb: 6.7.1 (edcfbbe)
C            3.84560600492141       -0.28367546953576       -0.30030883405081
C            2.52908248436920       -0.23163381245597        0.46900129221197
C            1.32184831452775       -0.07452602000663       -0.45503481689156
C            0.00046837027642       -0.02195326191497        0.31780113567073
C           -1.15731223062353        0.13400533479120       -0.64045336959597
Cl          -2.76733997025012        0.20317416725368        0.26142191315429
H            4.69923811449270       -0.39763683241215        0.37552359313466
H            3.99747787168714        0.63344992096051       -0.88026213759495
H            3.85738686960156       -1.12650749894544       -1.00034710931105
H            2.41102311518287       -1.14685632081311        1.06307781830634
H            2.54850910225942        0.60339368276793        1.18093334983532
H            1.29740020557135       -0.91076872099005       -1.16632788257518
H            1.43566771857590        0.84237888357904       -1.04850489597650
H            0.01598716031655        0.81902997697981        1.02050952432394
H           -0.12345076662278       -0.94105208336563        0.90191637508530
H           -1.10038394570590        1.06440438310315       -1.20865009562579
H           -1.24204933180573       -0.71159550672084       -1.32569097045717
