20
 xtb: 6.7.1 (edcfbbe)
C           -3.44699003137550       -0.98808877826772        0.31289424394220
C           -2.10178287543916       -0.34243806493389        0.62294349641186
C           -1.30398196130931       -0.06248751857711       -0.66435205323137
C            0.00170946936295        0.59248036113326       -0.32702148186985
O            0.14484075361195        1.78839683515275       -0.11913187480535
O            1.00604046061872       -0.29650685391808       -0.22134963117117
C            2.30719317350101        0.23544004152233        0.18940364344108
C            3.26211332022618       -0.92847300068026        0.25285741794190
H           -4.00912167827240       -1.17764494173975        1.23258014708093
H           -4.05469585561901       -0.33955405086269       -0.32719226146286
H           -3.31385452431412       -1.94406196550608       -0.20465406880940
H           -1.51230209273398       -0.99722433090475        1.27521551904706
H           -2.25183818349993        0.60026996671708        1.16139309561929
H           -1.86899773385572        0.62008163751277       -1.30605143551115
H           -1.12800781757340       -0.99723766573594       -1.20366205168643
H            2.61985119296656        0.98332700085975       -0.54528951068692
H            2.18640465721628        0.72194778430436        1.16193039498329
H            3.36530503569232       -1.40729031462240       -0.72515852661766
H            4.24663625465286       -0.56543448297626        0.56232581928966
H            2.92683149801297       -1.67326856397869        0.98032752004107
