 xtb: 6.7.1 (edcfbbe)
          04112515593D

 20 19  0     0  0            999 V2000
   -3.2145   -1.0568    0.0496 C   0  0  0  0  0  0  0  0  0  0  0  0
   -2.7235    0.3471    0.3837 C   0  0  0  0  0  0  0  0  0  0  0  0
   -1.2120    0.4199    0.6002 C   0  0  0  0  0  0  0  0  0  0  0  0
   -0.4183    0.1288   -0.6830 C   0  0  0  0  0  0  0  0  0  0  0  0
    1.0449    0.3318   -0.4043 C   0  0  0  0  0  0  0  0  0  0  0  0
    1.6574    1.3627   -0.5921 O   0  0  0  0  0  0  0  0  0  0  0  0
    1.5996   -0.7562    0.1187 O   0  0  0  0  0  0  0  0  0  0  0  0
    2.9797   -0.6858    0.4854 C   0  0  0  0  0  0  0  0  0  0  0  0
   -2.8344   -1.3860   -0.9133 H   0  0  0  0  0  0  0  0  0  0  0  0
   -2.8912   -1.7633    0.8105 H   0  0  0  0  0  0  0  0  0  0  0  0
   -4.3005   -1.0720    0.0066 H   0  0  0  0  0  0  0  0  0  0  0  0
   -3.0068    1.0337   -0.4161 H   0  0  0  0  0  0  0  0  0  0  0  0
   -3.2123    0.6850    1.2995 H   0  0  0  0  0  0  0  0  0  0  0  0
   -0.9176   -0.2969    1.3693 H   0  0  0  0  0  0  0  0  0  0  0  0
   -0.9493    1.4208    0.9510 H   0  0  0  0  0  0  0  0  0  0  0  0
   -0.7242    0.8170   -1.4704 H   0  0  0  0  0  0  0  0  0  0  0  0
   -0.5766   -0.9020   -0.9938 H   0  0  0  0  0  0  0  0  0  0  0  0
    3.2409   -1.6793    0.8356 H   0  0  0  0  0  0  0  0  0  0  0  0
    3.1187    0.0566    1.2721 H   0  0  0  0  0  0  0  0  0  0  0  0
    3.5810   -0.4026   -0.3792 H   0  0  0  0  0  0  0  0  0  0  0  0
  1  2  1  0  0  0  0
  2  3  1  0  0  0  0
  3  4  1  0  0  0  0
  4  5  1  0  0  0  0
  5  6  2  0  0  0  0
  5  7  1  0  0  0  0
  7  8  1  0  0  0  0
  1  9  1  0  0  0  0
  1 10  1  0  0  0  0
  1 11  1  0  0  0  0
  2 12  1  0  0  0  0
  2 13  1  0  0  0  0
  3 14  1  0  0  0  0
  3 15  1  0  0  0  0
  4 16  1  0  0  0  0
  4 17  1  0  0  0  0
  8 18  1  0  0  0  0
  8 19  1  0  0  0  0
  8 20  1  0  0  0  0
M  END
