 xtb: 6.7.1 (edcfbbe)
          04112512513D

 21 20  0     0  0            999 V2000
    2.0296    1.2786   -0.3547 C   0  0  0  0  0  0  0  0  0  0  0  0
    1.2024    0.0047   -0.4142 C   0  0  0  0  0  0  0  0  0  0  0  0
    2.0670   -1.2450   -0.3771 C   0  0  0  0  0  0  0  0  0  0  0  0
    0.0246   -0.0274    1.0121 S   0  0  0  0  0  0  0  0  0  0  0  0
   -1.6387   -0.0037    0.2158 C   0  0  0  0  0  0  0  0  0  0  0  0
   -1.8653    1.2798   -0.5657 C   0  0  0  0  0  0  0  0  0  0  0  0
   -1.8781   -1.2553   -0.6124 C   0  0  0  0  0  0  0  0  0  0  0  0
    1.3855    2.1546   -0.3704 H   0  0  0  0  0  0  0  0  0  0  0  0
    2.6163    1.3006    0.5610 H   0  0  0  0  0  0  0  0  0  0  0  0
    2.7056    1.3238   -1.2060 H   0  0  0  0  0  0  0  0  0  0  0  0
    0.5832    0.0029   -1.3118 H   0  0  0  0  0  0  0  0  0  0  0  0
    2.6535   -1.2667    0.5387 H   0  0  0  0  0  0  0  0  0  0  0  0
    2.7445   -1.2545   -1.2284 H   0  0  0  0  0  0  0  0  0  0  0  0
    1.4487   -2.1390   -0.4096 H   0  0  0  0  0  0  0  0  0  0  0  0
   -2.2903   -0.0168    1.0939 H   0  0  0  0  0  0  0  0  0  0  0  0
   -1.2199    1.3267   -1.4403 H   0  0  0  0  0  0  0  0  0  0  0  0
   -2.8991    1.3251   -0.9012 H   0  0  0  0  0  0  0  0  0  0  0  0
   -1.6638    2.1443    0.0625 H   0  0  0  0  0  0  0  0  0  0  0  0
   -1.6863   -2.1443   -0.0162 H   0  0  0  0  0  0  0  0  0  0  0  0
   -1.2320   -1.2773   -1.4876 H   0  0  0  0  0  0  0  0  0  0  0  0
   -2.9117   -1.2772   -0.9505 H   0  0  0  0  0  0  0  0  0  0  0  0
  1  2  1  0  0  0  0
  2  3  1  0  0  0  0
  2  4  1  0  0  0  0
  4  5  1  0  0  0  0
  5  6  1  0  0  0  0
  5  7  1  0  0  0  0
  1  8  1  0  0  0  0
  1  9  1  0  0  0  0
  1 10  1  0  0  0  0
  2 11  1  0  0  0  0
  3 12  1  0  0  0  0
  3 13  1  0  0  0  0
  3 14  1  0  0  0  0
  5 15  1  0  0  0  0
  6 16  1  0  0  0  0
  6 17  1  0  0  0  0
  6 18  1  0  0  0  0
  7 19  1  0  0  0  0
  7 20  1  0  0  0  0
  7 21  1  0  0  0  0
M  END
