 xtb: 6.7.1 (edcfbbe)
          04112515533D

 20 19  0     0  0            999 V2000
   -3.5987   -0.7018    0.1623 C   0  0  0  0  0  0  0  0  0  0  0  0
   -2.2556   -0.0609    0.4865 C   0  0  0  0  0  0  0  0  0  0  0  0
   -1.1813   -0.4725   -0.5210 C   0  0  0  0  0  0  0  0  0  0  0  0
    0.1105    0.2680   -0.2939 C   0  0  0  0  0  0  0  0  0  0  0  0
    0.1972    1.4219    0.0704 O   0  0  0  0  0  0  0  0  0  0  0  0
    1.1619   -0.4972   -0.5659 O   0  0  0  0  0  0  0  0  0  0  0  0
    2.4764    0.0650   -0.4115 C   0  0  0  0  0  0  0  0  0  0  0  0
    2.9579   -0.0517    1.0266 C   0  0  0  0  0  0  0  0  0  0  0  0
   -3.9430   -0.3902   -0.8206 H   0  0  0  0  0  0  0  0  0  0  0  0
   -3.5150   -1.7856    0.1716 H   0  0  0  0  0  0  0  0  0  0  0  0
   -4.3427   -0.4070    0.8971 H   0  0  0  0  0  0  0  0  0  0  0  0
   -1.9389   -0.3557    1.4888 H   0  0  0  0  0  0  0  0  0  0  0  0
   -2.3448    1.0270    0.4766 H   0  0  0  0  0  0  0  0  0  0  0  0
   -1.5183   -0.2238   -1.5307 H   0  0  0  0  0  0  0  0  0  0  0  0
   -0.9821   -1.5430   -0.4821 H   0  0  0  0  0  0  0  0  0  0  0  0
    3.1033   -0.5150   -1.0893 H   0  0  0  0  0  0  0  0  0  0  0  0
    2.4462    1.1135   -0.7231 H   0  0  0  0  0  0  0  0  0  0  0  0
    2.3221    0.5410    1.6806 H   0  0  0  0  0  0  0  0  0  0  0  0
    2.9282   -1.0893    1.3482 H   0  0  0  0  0  0  0  0  0  0  0  0
    3.9761    0.3169    1.0962 H   0  0  0  0  0  0  0  0  0  0  0  0
  1  2  1  0  0  0  0
  2  3  1  0  0  0  0
  3  4  1  0  0  0  0
  4  5  2  0  0  0  0
  4  6  1  0  0  0  0
  6  7  1  0  0  0  0
  7  8  1  0  0  0  0
  1  9  1  0  0  0  0
  1 10  1  0  0  0  0
  1 11  1  0  0  0  0
  2 12  1  0  0  0  0
  2 13  1  0  0  0  0
  3 14  1  0  0  0  0
  3 15  1  0  0  0  0
  7 16  1  0  0  0  0
  7 17  1  0  0  0  0
  8 18  1  0  0  0  0
  8 19  1  0  0  0  0
  8 20  1  0  0  0  0
M  END
