 xtb: 6.7.1 (edcfbbe)
          04112515543D

 31 32  0     0  0            999 V2000
   -3.5428    1.6166   -0.9841 C   0  0  0  0  0  0  0  0  0  0  0  0
   -3.1238    0.1767   -0.7023 C   0  0  0  0  0  0  0  0  0  0  0  0
   -3.5011   -0.4846   -1.4881 H   0  0  0  0  0  0  0  0  0  0  0  0
   -1.6253   -0.0342   -0.5849 C   0  0  0  0  0  0  0  0  0  0  0  0
   -1.1115   -1.3168   -0.8614 C   0  0  0  0  0  0  0  0  0  0  0  0
    0.2243   -1.5792   -0.7521 C   0  0  0  0  0  0  0  0  0  0  0  0
    1.1290   -0.5708   -0.3592 C   0  0  0  0  0  0  0  0  0  0  0  0
    2.5133   -0.8160   -0.2470 C   0  0  0  0  0  0  0  0  0  0  0  0
    3.3659    0.1875    0.1400 C   0  0  0  0  0  0  0  0  0  0  0  0
    2.8535    1.4744    0.4289 C   0  0  0  0  0  0  0  0  0  0  0  0
    1.5198    1.7296    0.3273 C   0  0  0  0  0  0  0  0  0  0  0  0
    0.6162    0.7185   -0.0694 C   0  0  0  0  0  0  0  0  0  0  0  0
   -0.7675    0.9562   -0.1815 C   0  0  0  0  0  0  0  0  0  0  0  0
    4.7169    0.0672    0.2811 O   0  0  0  0  0  0  0  0  0  0  0  0
    5.3148   -1.1859    0.0118 C   0  0  0  0  0  0  0  0  0  0  0  0
   -3.6733   -0.3395    0.6126 C   0  0  0  0  0  0  0  0  0  0  0  0
   -4.0745   -1.4737    0.7768 O   0  0  0  0  0  0  0  0  0  0  0  0
   -3.6231    0.5464    1.5895 O   0  0  0  0  0  0  0  0  0  0  0  0
   -4.6080    1.6524   -1.1985 H   0  0  0  0  0  0  0  0  0  0  0  0
   -3.3451    2.2540   -0.1280 H   0  0  0  0  0  0  0  0  0  0  0  0
   -2.9986    1.9925   -1.8458 H   0  0  0  0  0  0  0  0  0  0  0  0
   -1.7970   -2.0987   -1.1554 H   0  0  0  0  0  0  0  0  0  0  0  0
    0.6043   -2.5671   -0.9675 H   0  0  0  0  0  0  0  0  0  0  0  0
    2.8717   -1.8077   -0.4739 H   0  0  0  0  0  0  0  0  0  0  0  0
    3.5567    2.2350    0.7290 H   0  0  0  0  0  0  0  0  0  0  0  0
    1.1360    2.7138    0.5490 H   0  0  0  0  0  0  0  0  0  0  0  0
   -1.1327    1.9426    0.0557 H   0  0  0  0  0  0  0  0  0  0  0  0
    4.9319   -1.9575    0.6849 H   0  0  0  0  0  0  0  0  0  0  0  0
    6.3782   -1.0407    0.1873 H   0  0  0  0  0  0  0  0  0  0  0  0
    5.1500   -1.4857   -1.0264 H   0  0  0  0  0  0  0  0  0  0  0  0
   -3.9346    0.1858    2.4420 H   0  0  0  0  0  0  0  0  0  0  0  0
  1  2  1  0  0  0  0
  2  3  1  0  0  0  0
  2  4  1  0  0  0  0
  4  5  4  0  0  0  0
  5  6  2  0  0  0  0
  6  7  4  0  0  0  0
  7  8  4  0  0  0  0
  8  9  4  0  0  0  0
  9 10  4  0  0  0  0
 10 11  2  0  0  0  0
  7 12  4  0  0  0  0
 11 12  4  0  0  0  0
  4 13  2  0  0  0  0
 12 13  4  0  0  0  0
  9 14  1  0  0  0  0
 14 15  1  0  0  0  0
  2 16  1  0  0  0  0
 16 17  2  0  0  0  0
 16 18  1  0  0  0  0
  1 19  1  0  0  0  0
  1 20  1  0  0  0  0
  1 21  1  0  0  0  0
  5 22  1  0  0  0  0
  6 23  1  0  0  0  0
  8 24  1  0  0  0  0
 10 25  1  0  0  0  0
 11 26  1  0  0  0  0
 13 27  1  0  0  0  0
 15 28  1  0  0  0  0
 15 29  1  0  0  0  0
 15 30  1  0  0  0  0
 18 31  1  0  0  0  0
M  END
