 xtb: 6.7.1 (edcfbbe)
          04112515593D

 20 19  0     0  0            999 V2000
   -3.8747   -0.3839   -0.3128 C   0  0  0  0  0  0  0  0  0  0  0  0
   -2.6978    0.0716    0.5415 C   0  0  0  0  0  0  0  0  0  0  0  0
   -1.3700   -0.1283   -0.1844 C   0  0  0  0  0  0  0  0  0  0  0  0
   -0.1808    0.3014    0.6770 C   0  0  0  0  0  0  0  0  0  0  0  0
    1.1089    0.2402   -0.0986 C   0  0  0  0  0  0  0  0  0  0  0  0
    1.2501    0.6145   -1.2440 O   0  0  0  0  0  0  0  0  0  0  0  0
    2.0880   -0.2784    0.6335 O   0  0  0  0  0  0  0  0  0  0  0  0
    3.3974   -0.3940    0.0658 C   0  0  0  0  0  0  0  0  0  0  0  0
   -4.8118   -0.2297    0.2156 H   0  0  0  0  0  0  0  0  0  0  0  0
   -3.9075    0.1764   -1.2443 H   0  0  0  0  0  0  0  0  0  0  0  0
   -3.7846   -1.4406   -0.5534 H   0  0  0  0  0  0  0  0  0  0  0  0
   -2.8177    1.1275    0.7908 H   0  0  0  0  0  0  0  0  0  0  0  0
   -2.6866   -0.4935    1.4754 H   0  0  0  0  0  0  0  0  0  0  0  0
   -1.3596    0.4525   -1.1091 H   0  0  0  0  0  0  0  0  0  0  0  0
   -1.2575   -1.1803   -0.4551 H   0  0  0  0  0  0  0  0  0  0  0  0
   -0.0845   -0.3195    1.5670 H   0  0  0  0  0  0  0  0  0  0  0  0
   -0.3198    1.3393    0.9892 H   0  0  0  0  0  0  0  0  0  0  0  0
    3.7415   -1.4072    0.2601 H   0  0  0  0  0  0  0  0  0  0  0  0
    4.0477    0.3288    0.5563 H   0  0  0  0  0  0  0  0  0  0  0  0
    3.3545   -0.1966   -1.0058 H   0  0  0  0  0  0  0  0  0  0  0  0
  1  2  1  0  0  0  0
  2  3  1  0  0  0  0
  3  4  1  0  0  0  0
  4  5  1  0  0  0  0
  5  6  2  0  0  0  0
  5  7  1  0  0  0  0
  7  8  1  0  0  0  0
  1  9  1  0  0  0  0
  1 10  1  0  0  0  0
  1 11  1  0  0  0  0
  2 12  1  0  0  0  0
  2 13  1  0  0  0  0
  3 14  1  0  0  0  0
  3 15  1  0  0  0  0
  4 16  1  0  0  0  0
  4 17  1  0  0  0  0
  8 18  1  0  0  0  0
  8 19  1  0  0  0  0
  8 20  1  0  0  0  0
M  END
