 xtb: 6.7.1 (edcfbbe)
          04112515533D

 20 19  0     0  0            999 V2000
   -2.4750   -0.7792    1.0279 C   0  0  0  0  0  0  0  0  0  0  0  0
   -2.0635   -0.7723   -0.4393 C   0  0  0  0  0  0  0  0  0  0  0  0
   -1.4099    0.5564   -0.8389 C   0  0  0  0  0  0  0  0  0  0  0  0
   -0.1141    0.7730   -0.1010 C   0  0  0  0  0  0  0  0  0  0  0  0
    0.1116    1.6990    0.6526 O   0  0  0  0  0  0  0  0  0  0  0  0
    0.7744   -0.1719   -0.3711 O   0  0  0  0  0  0  0  0  0  0  0  0
    2.0571   -0.0885    0.2705 C   0  0  0  0  0  0  0  0  0  0  0  0
    2.9451   -1.1760   -0.3021 C   0  0  0  0  0  0  0  0  0  0  0  0
   -2.9289   -1.7309    1.2909 H   0  0  0  0  0  0  0  0  0  0  0  0
   -1.6110   -0.6193    1.6706 H   0  0  0  0  0  0  0  0  0  0  0  0
   -3.1923    0.0136    1.2269 H   0  0  0  0  0  0  0  0  0  0  0  0
   -2.9435   -0.9272   -1.0642 H   0  0  0  0  0  0  0  0  0  0  0  0
   -1.3599   -1.5833   -0.6309 H   0  0  0  0  0  0  0  0  0  0  0  0
   -2.0710    1.3935   -0.6146 H   0  0  0  0  0  0  0  0  0  0  0  0
   -1.1873    0.5437   -1.9064 H   0  0  0  0  0  0  0  0  0  0  0  0
    2.4685    0.9108    0.0932 H   0  0  0  0  0  0  0  0  0  0  0  0
    1.9124   -0.2091    1.3493 H   0  0  0  0  0  0  0  0  0  0  0  0
    3.9208   -1.1281    0.1700 H   0  0  0  0  0  0  0  0  0  0  0  0
    2.5049   -2.1514   -0.1179 H   0  0  0  0  0  0  0  0  0  0  0  0
    3.0576   -1.0388   -1.3734 H   0  0  0  0  0  0  0  0  0  0  0  0
  1  2  1  0  0  0  0
  2  3  1  0  0  0  0
  3  4  1  0  0  0  0
  4  5  2  0  0  0  0
  4  6  1  0  0  0  0
  6  7  1  0  0  0  0
  7  8  1  0  0  0  0
  1  9  1  0  0  0  0
  1 10  1  0  0  0  0
  1 11  1  0  0  0  0
  2 12  1  0  0  0  0
  2 13  1  0  0  0  0
  3 14  1  0  0  0  0
  3 15  1  0  0  0  0
  7 16  1  0  0  0  0
  7 17  1  0  0  0  0
  8 18  1  0  0  0  0
  8 19  1  0  0  0  0
  8 20  1  0  0  0  0
M  END
