20
 xtb: 6.7.1 (edcfbbe)
C           -2.41842334267002       -0.72056086815151        1.08452495410613
C           -2.10889270224141       -0.78637527667710       -0.40735376612735
C           -1.42609653051314        0.49170206023148       -0.92449020632278
C           -0.15163747974025        0.78387502927804       -0.18487745768282
O            0.02739110289705        1.73536846503725        0.56008889824546
O            0.78919557514995       -0.14772597190633       -0.42200931715092
C            2.06498444198300        0.02030569451925        0.27384629514287
C            2.96535054664243       -1.10376405286965       -0.17023342474812
H           -2.95226495864759       -1.61742781008601        1.41253699158820
H           -1.50081442737012       -0.64495563700407        1.67962316199433
H           -3.04171198896994        0.14930426681266        1.31859743414985
H           -3.03440529283125       -0.92091631454249       -0.97695553632136
H           -1.47217558549329       -1.65100744657162       -0.62276827623232
H           -2.08595942291711        1.35298246843384       -0.79508064872527
H           -1.19357718846780        0.38354184816860       -1.98928643316218
H            2.47368264853257        1.00029360258546        0.01122971437529
H            1.87412639631448       -0.00761145222718        1.35081078505288
H            3.93156752617723       -1.00583414647842        0.33319088823257
H            2.53948800579959       -2.07677968346633        0.09029322928517
H            3.13585346024386       -1.06728194207086       -1.24991727048108
