17
 xtb: 6.7.1 (edcfbbe)
C            0.72388562868924       -2.32443025797308       -0.03739822727582
O            0.80044375214293       -1.02861663777616        0.58149103735843
C            0.44104354606689        0.00535205547525       -0.29646097584596
O            0.69407339260916        1.16269123300555        0.45554660499422
C            0.49578045793948        2.36649494006759       -0.30559415066788
O           -0.89126744757053       -0.08509828601906       -0.74531809036697
C           -1.87614987641607       -0.07611382705853        0.30827550923698
H            1.34022629355120       -2.35808847695616       -0.94495015597019
H           -0.31007259213000       -2.58646675801979       -0.28772298095385
H            1.11208736056025       -3.03559591673830        0.69323673694543
H            1.04538130943145       -0.01848235357200       -1.21857167613799
H            1.11324578947923        2.35847775949212       -1.21296364551287
H            0.80641358815917        3.19012033976472        0.33905740193801
H           -0.55694586963534        2.49599974652068       -0.58046200681048
H           -1.82964027077841        0.85185024894550        0.88780815450755
H           -1.75022902331366       -0.93422123492871        0.97686639097504
H           -2.84506498298546       -0.14406437039498       -0.18900079898904
