20
 xtb: 6.7.1 (edcfbbe)
C           -3.38173003526728       -1.05614085750290        0.27974613070537
C           -1.99691386519157       -0.49647868816652        0.58211444173691
C           -1.33693104534321        0.07870067915851       -0.68466405401178
C            0.00132959794621        0.67353209433478       -0.36274715571817
O            0.21984895796018        1.86525725114531       -0.20233488099241
O            0.94799565748253       -0.27176795008163       -0.22000501586000
C            2.28082600369390        0.18851966204256        0.17174812643710
C            3.14275708296103       -1.03716265300361        0.33121903558589
H           -4.04334895901738       -0.27713021535393       -0.11390906940751
H           -3.32553075934426       -1.85823620901924       -0.46403438639078
H           -3.84279619541511       -1.46537568375947        1.18400055834578
H           -1.35611776713780       -1.28316296654956        0.99522952795294
H           -2.06733920056722        0.29378393105208        1.33881231212244
H           -1.96426243949524        0.86715758453364       -1.10847636080635
H           -1.21472859005648       -0.71669200188387       -1.42710351742862
H            2.65590804866795        0.85652958946543       -0.60961286659861
H            2.19060149249140        0.75083985044654        1.10587576056213
H            4.15112248914433       -0.72961583164779        0.62338829578041
H            2.74669393548800       -1.69692625796553        1.10865822026834
H            3.21257537341375       -1.59513952008380       -0.60696898059673
