 xtb: 6.7.1 (edcfbbe)
          04112515593D

 20 19  0     0  0            999 V2000
   -3.3697   -0.8217    0.1549 C   0  0  0  0  0  0  0  0  0  0  0  0
   -1.9627   -0.5376   -0.3571 C   0  0  0  0  0  0  0  0  0  0  0  0
   -1.5053    0.8728    0.0095 C   0  0  0  0  0  0  0  0  0  0  0  0
   -0.1062    1.1769   -0.5292 C   0  0  0  0  0  0  0  0  0  0  0  0
    0.9449    0.3520    0.1668 C   0  0  0  0  0  0  0  0  0  0  0  0
    1.0001    0.1483    1.3612 O   0  0  0  0  0  0  0  0  0  0  0  0
    1.8399   -0.1241   -0.6935 O   0  0  0  0  0  0  0  0  0  0  0  0
    2.9222   -0.9009   -0.1729 C   0  0  0  0  0  0  0  0  0  0  0  0
   -3.4044   -0.7302    1.2380 H   0  0  0  0  0  0  0  0  0  0  0  0
   -4.0783   -0.1164   -0.2725 H   0  0  0  0  0  0  0  0  0  0  0  0
   -3.6785   -1.8281   -0.1154 H   0  0  0  0  0  0  0  0  0  0  0  0
   -1.2658   -1.2622    0.0720 H   0  0  0  0  0  0  0  0  0  0  0  0
   -1.9398   -0.6553   -1.4426 H   0  0  0  0  0  0  0  0  0  0  0  0
   -1.4921    0.9778    1.0962 H   0  0  0  0  0  0  0  0  0  0  0  0
   -2.2091    1.5996   -0.3975 H   0  0  0  0  0  0  0  0  0  0  0  0
    0.1363    2.2249   -0.3408 H   0  0  0  0  0  0  0  0  0  0  0  0
   -0.0415    0.9889   -1.6004 H   0  0  0  0  0  0  0  0  0  0  0  0
    2.5694   -1.9017    0.0779 H   0  0  0  0  0  0  0  0  0  0  0  0
    3.3235   -0.4282    0.7243 H   0  0  0  0  0  0  0  0  0  0  0  0
    3.6652   -0.9405   -0.9632 H   0  0  0  0  0  0  0  0  0  0  0  0
  1  2  1  0  0  0  0
  2  3  1  0  0  0  0
  3  4  1  0  0  0  0
  4  5  1  0  0  0  0
  5  6  2  0  0  0  0
  5  7  1  0  0  0  0
  7  8  1  0  0  0  0
  1  9  1  0  0  0  0
  1 10  1  0  0  0  0
  1 11  1  0  0  0  0
  2 12  1  0  0  0  0
  2 13  1  0  0  0  0
  3 14  1  0  0  0  0
  3 15  1  0  0  0  0
  4 16  1  0  0  0  0
  4 17  1  0  0  0  0
  8 18  1  0  0  0  0
  8 19  1  0  0  0  0
  8 20  1  0  0  0  0
M  END
