 xtb: 6.7.1 (edcfbbe)
          04112516003D

 17 16  0     0  0            999 V2000
    3.3566   -0.7470   -0.1700 C   0  0  0  0  0  0  0  0  0  0  0  0
    2.3472    0.2652    0.3586 C   0  0  0  0  0  0  0  0  0  0  0  0
    0.9711    0.0732   -0.2743 C   0  0  0  0  0  0  0  0  0  0  0  0
   -0.0440    1.0861    0.2515 C   0  0  0  0  0  0  0  0  0  0  0  0
   -1.4148    0.9260   -0.3799 C   0  0  0  0  0  0  0  0  0  0  0  0
   -2.1713   -0.6388    0.0918 Cl  0  0  0  0  0  0  0  0  0  0  0  0
    4.3287   -0.5954    0.2925 H   0  0  0  0  0  0  0  0  0  0  0  0
    3.4686   -0.6466   -1.2472 H   0  0  0  0  0  0  0  0  0  0  0  0
    3.0275   -1.7610    0.0460 H   0  0  0  0  0  0  0  0  0  0  0  0
    2.2637    0.1612    1.4425 H   0  0  0  0  0  0  0  0  0  0  0  0
    2.7032    1.2760    0.1484 H   0  0  0  0  0  0  0  0  0  0  0  0
    0.6145   -0.9371   -0.0628 H   0  0  0  0  0  0  0  0  0  0  0  0
    1.0552    0.1752   -1.3585 H   0  0  0  0  0  0  0  0  0  0  0  0
    0.3024    2.0972    0.0274 H   0  0  0  0  0  0  0  0  0  0  0  0
   -0.1288    0.9905    1.3354 H   0  0  0  0  0  0  0  0  0  0  0  0
   -2.1030    1.6999   -0.0456 H   0  0  0  0  0  0  0  0  0  0  0  0
   -1.3568    0.9148   -1.4668 H   0  0  0  0  0  0  0  0  0  0  0  0
  1  2  1  0  0  0  0
  2  3  1  0  0  0  0
  3  4  1  0  0  0  0
  4  5  1  0  0  0  0
  5  6  1  0  0  0  0
  1  7  1  0  0  0  0
  1  8  1  0  0  0  0
  1  9  1  0  0  0  0
  2 10  1  0  0  0  0
  2 11  1  0  0  0  0
  3 12  1  0  0  0  0
  3 13  1  0  0  0  0
  4 14  1  0  0  0  0
  4 15  1  0  0  0  0
  5 16  1  0  0  0  0
  5 17  1  0  0  0  0
M  END
