 xtb: 6.7.1 (edcfbbe)
          04112512253D

 14 13  0     0  0            999 V2000
   -3.2989   -0.5771    0.5623 C   0  0  0  0  0  0  0  0  0  0  0  0
   -2.5170   -0.2652   -0.7089 C   0  0  0  0  0  0  0  0  0  0  0  0
   -1.8035    1.0856   -0.6663 C   0  0  0  0  0  0  0  0  0  0  0  0
   -0.7202    1.1927    0.3859 C   0  0  0  0  0  0  0  0  0  0  0  0
    0.9543   -0.1598    0.0415 I   0  0  0  0  0  0  0  0  0  0  0  0
   -2.6357   -0.7145    1.4129 H   0  0  0  0  0  0  0  0  0  0  0  0
   -3.9945    0.2273    0.7911 H   0  0  0  0  0  0  0  0  0  0  0  0
   -3.8663   -1.4952    0.4335 H   0  0  0  0  0  0  0  0  0  0  0  0
   -3.2054   -0.2568   -1.5561 H   0  0  0  0  0  0  0  0  0  0  0  0
   -1.7862   -1.0570   -0.8897 H   0  0  0  0  0  0  0  0  0  0  0  0
   -1.3773    1.2959   -1.6500 H   0  0  0  0  0  0  0  0  0  0  0  0
   -2.5349    1.8691   -0.4466 H   0  0  0  0  0  0  0  0  0  0  0  0
   -1.0895    0.9531    1.3783 H   0  0  0  0  0  0  0  0  0  0  0  0
   -0.2780    2.1850    0.3921 H   0  0  0  0  0  0  0  0  0  0  0  0
  1  2  1  0  0  0  0
  2  3  1  0  0  0  0
  3  4  1  0  0  0  0
  4  5  1  0  0  0  0
  1  6  1  0  0  0  0
  1  7  1  0  0  0  0
  1  8  1  0  0  0  0
  2  9  1  0  0  0  0
  2 10  1  0  0  0  0
  3 11  1  0  0  0  0
  3 12  1  0  0  0  0
  4 13  1  0  0  0  0
  4 14  1  0  0  0  0
M  END
