 xtb: 6.7.1 (edcfbbe)
          04112515543D

 31 32  0     0  0            999 V2000
   -3.6332    0.0074    1.8543 C   0  0  0  0  0  0  0  0  0  0  0  0
   -3.0519    0.5408    0.5444 C   0  0  0  0  0  0  0  0  0  0  0  0
   -3.1565    1.6288    0.5025 H   0  0  0  0  0  0  0  0  0  0  0  0
   -1.5840    0.1938    0.3936 C   0  0  0  0  0  0  0  0  0  0  0  0
   -1.1722   -1.1526    0.3822 C   0  0  0  0  0  0  0  0  0  0  0  0
    0.1482   -1.4802    0.2571 C   0  0  0  0  0  0  0  0  0  0  0  0
    1.1357   -0.4810    0.1349 C   0  0  0  0  0  0  0  0  0  0  0  0
    2.5039   -0.7990    0.0063 C   0  0  0  0  0  0  0  0  0  0  0  0
    3.4391    0.1982   -0.1138 C   0  0  0  0  0  0  0  0  0  0  0  0
    3.0292    1.5525   -0.1088 C   0  0  0  0  0  0  0  0  0  0  0  0
    1.7131    1.8792    0.0146 C   0  0  0  0  0  0  0  0  0  0  0  0
    0.7262    0.8762    0.1398 C   0  0  0  0  0  0  0  0  0  0  0  0
   -0.6422    1.1823    0.2670 C   0  0  0  0  0  0  0  0  0  0  0  0
    4.7835    0.0104   -0.2432 O   0  0  0  0  0  0  0  0  0  0  0  0
    5.2817   -1.3135   -0.2563 C   0  0  0  0  0  0  0  0  0  0  0  0
   -3.7579   -0.0125   -0.6743 C   0  0  0  0  0  0  0  0  0  0  0  0
   -3.9511    0.6318   -1.6857 O   0  0  0  0  0  0  0  0  0  0  0  0
   -4.1167   -1.2775   -0.5612 O   0  0  0  0  0  0  0  0  0  0  0  0
   -3.0702    0.4155    2.6892 H   0  0  0  0  0  0  0  0  0  0  0  0
   -4.6737    0.3068    1.9509 H   0  0  0  0  0  0  0  0  0  0  0  0
   -3.5782   -1.0760    1.8893 H   0  0  0  0  0  0  0  0  0  0  0  0
   -1.9145   -1.9313    0.4667 H   0  0  0  0  0  0  0  0  0  0  0  0
    0.4525   -2.5165    0.2484 H   0  0  0  0  0  0  0  0  0  0  0  0
    2.7838   -1.8405    0.0056 H   0  0  0  0  0  0  0  0  0  0  0  0
    3.7949    2.3059   -0.2058 H   0  0  0  0  0  0  0  0  0  0  0  0
    1.4069    2.9145    0.0173 H   0  0  0  0  0  0  0  0  0  0  0  0
   -0.9393    2.2213    0.2652 H   0  0  0  0  0  0  0  0  0  0  0  0
    5.0525   -1.8291    0.6798 H   0  0  0  0  0  0  0  0  0  0  0  0
    6.3590   -1.2140   -0.3664 H   0  0  0  0  0  0  0  0  0  0  0  0
    4.8755   -1.8783   -1.0995 H   0  0  0  0  0  0  0  0  0  0  0  0
   -4.5440   -1.6205   -1.3701 H   0  0  0  0  0  0  0  0  0  0  0  0
  1  2  1  0  0  0  0
  2  3  1  0  0  0  0
  2  4  1  0  0  0  0
  4  5  4  0  0  0  0
  5  6  2  0  0  0  0
  6  7  4  0  0  0  0
  7  8  4  0  0  0  0
  8  9  4  0  0  0  0
  9 10  4  0  0  0  0
 10 11  2  0  0  0  0
  7 12  4  0  0  0  0
 11 12  4  0  0  0  0
  4 13  2  0  0  0  0
 12 13  4  0  0  0  0
  9 14  1  0  0  0  0
 14 15  1  0  0  0  0
  2 16  1  0  0  0  0
 16 17  2  0  0  0  0
 16 18  1  0  0  0  0
  1 19  1  0  0  0  0
  1 20  1  0  0  0  0
  1 21  1  0  0  0  0
  5 22  1  0  0  0  0
  6 23  1  0  0  0  0
  8 24  1  0  0  0  0
 10 25  1  0  0  0  0
 11 26  1  0  0  0  0
 13 27  1  0  0  0  0
 15 28  1  0  0  0  0
 15 29  1  0  0  0  0
 15 30  1  0  0  0  0
 18 31  1  0  0  0  0
M  END
