 xtb: 6.7.1 (edcfbbe)
          04112516563D

 31 32  0     0  0            999 V2000
   -3.5176    1.3523   -1.2876 C   0  0  0  0  0  0  0  0  0  0  0  0
   -3.1453    0.0466   -0.5848 C   0  0  0  0  0  0  0  0  0  0  0  0
   -3.5891   -0.8030   -1.1116 H   0  0  0  0  0  0  0  0  0  0  0  0
   -1.6438   -0.1565   -0.5164 C   0  0  0  0  0  0  0  0  0  0  0  0
   -1.0694   -1.3004   -1.0996 C   0  0  0  0  0  0  0  0  0  0  0  0
    0.2814   -1.5059   -1.0599 C   0  0  0  0  0  0  0  0  0  0  0  0
    1.1369   -0.5799   -0.4290 C   0  0  0  0  0  0  0  0  0  0  0  0
    2.5332   -0.7734   -0.3756 C   0  0  0  0  0  0  0  0  0  0  0  0
    3.3370    0.1461    0.2503 C   0  0  0  0  0  0  0  0  0  0  0  0
    2.7628    1.2946    0.8455 C   0  0  0  0  0  0  0  0  0  0  0  0
    1.4175    1.4989    0.8043 C   0  0  0  0  0  0  0  0  0  0  0  0
    0.5627    0.5714    0.1671 C   0  0  0  0  0  0  0  0  0  0  0  0
   -0.8311    0.7548    0.1102 C   0  0  0  0  0  0  0  0  0  0  0  0
    4.6934    0.0642    0.3633 O   0  0  0  0  0  0  0  0  0  0  0  0
    5.3519   -1.0512   -0.2048 C   0  0  0  0  0  0  0  0  0  0  0  0
   -3.6476   -0.0114    0.8413 C   0  0  0  0  0  0  0  0  0  0  0  0
   -4.0442   -1.0303    1.3707 O   0  0  0  0  0  0  0  0  0  0  0  0
   -3.5797    1.1401    1.4822 O   0  0  0  0  0  0  0  0  0  0  0  0
   -4.5986    1.4470   -1.3527 H   0  0  0  0  0  0  0  0  0  0  0  0
   -3.1250    2.2070   -0.7462 H   0  0  0  0  0  0  0  0  0  0  0  0
   -3.1028    1.3511   -2.2917 H   0  0  0  0  0  0  0  0  0  0  0  0
   -1.7113   -2.0214   -1.5841 H   0  0  0  0  0  0  0  0  0  0  0  0
    0.7103   -2.3872   -1.5136 H   0  0  0  0  0  0  0  0  0  0  0  0
    2.9396   -1.6590   -0.8380 H   0  0  0  0  0  0  0  0  0  0  0  0
    3.4294    1.9923    1.3272 H   0  0  0  0  0  0  0  0  0  0  0  0
    0.9858    2.3771    1.2599 H   0  0  0  0  0  0  0  0  0  0  0  0
   -1.2525    1.6321    0.5780 H   0  0  0  0  0  0  0  0  0  0  0  0
    5.0143   -1.9837    0.2549 H   0  0  0  0  0  0  0  0  0  0  0  0
    6.4080   -0.8997    0.0061 H   0  0  0  0  0  0  0  0  0  0  0  0
    5.1939   -1.0929   -1.2856 H   0  0  0  0  0  0  0  0  0  0  0  0
   -3.8768    1.0713    2.4102 H   0  0  0  0  0  0  0  0  0  0  0  0
  1  2  1  0  0  0  0
  2  3  1  0  0  0  0
  2  4  1  0  0  0  0
  4  5  4  0  0  0  0
  5  6  2  0  0  0  0
  6  7  4  0  0  0  0
  7  8  4  0  0  0  0
  8  9  4  0  0  0  0
  9 10  4  0  0  0  0
 10 11  2  0  0  0  0
  7 12  4  0  0  0  0
 11 12  4  0  0  0  0
  4 13  2  0  0  0  0
 12 13  4  0  0  0  0
  9 14  1  0  0  0  0
 14 15  1  0  0  0  0
  2 16  1  0  0  0  0
 16 17  2  0  0  0  0
 16 18  1  0  0  0  0
  1 19  1  0  0  0  0
  1 20  1  0  0  0  0
  1 21  1  0  0  0  0
  5 22  1  0  0  0  0
  6 23  1  0  0  0  0
  8 24  1  0  0  0  0
 10 25  1  0  0  0  0
 11 26  1  0  0  0  0
 13 27  1  0  0  0  0
 15 28  1  0  0  0  0
 15 29  1  0  0  0  0
 15 30  1  0  0  0  0
 18 31  1  0  0  0  0
M  END
