20
 xtb: 6.7.1 (edcfbbe)
C           -2.66545588793470       -1.22117094864187       -0.12959579438638
C           -2.52180158051160        0.29177776678409        0.00606784931948
C           -1.23513629507166        0.68516935265966        0.73960502965586
C           -0.00977008956991        0.27201090784573       -0.02855803747932
O            0.15705449314518        0.48036713539326       -1.21978206821356
O            0.89347892278708       -0.35640057722300        0.74873834042718
C            2.15316483943740       -0.75524127868289        0.11593089066670
C            3.12178393742335        0.40403509984421        0.06719226394567
H           -3.59769902050000       -1.48527797478809       -0.63831938678180
H           -1.83820553776328       -1.64801389620156       -0.70895907111535
H           -2.66874502205091       -1.70310155428821        0.85428225565782
H           -3.37005494090824        0.70078594978373        0.56481265157082
H           -2.53294321578210        0.76404079844840       -0.98221947601169
H           -1.20752796151418        0.25023886398561        1.74186230375194
H           -1.17959445559915        1.77602364678399        0.84601513582680
H            2.52283252867856       -1.56001297735266        0.75441588252365
H            1.93529860249495       -1.15444168850603       -0.87795440547626
H            3.31124409150316        0.79311152771442        1.07149617058697
H            4.07185940014071        0.05720639955454       -0.35079919355554
H            2.74387269850215        1.21295740440978       -0.56327886990877
