16
 xtb: 6.7.1 (edcfbbe)
C            1.70060946946381       -0.85247986381816       -0.44449129075807
C            1.29942917284136        0.55126289538654        0.00664231619076
C            0.00370233587466        0.63906347465173        0.82479438762953
C           -1.30584662036622        0.56291398281605        0.04352917503814
N           -1.60269944734978       -0.79769327216068       -0.45240307392592
H            1.75523355777296       -1.53410182006248        0.41252138956638
H            0.98498537621383       -1.27041239621661       -1.15569570598838
H            2.68636996801315       -0.84045796107731       -0.92258527426991
H            2.11382870316589        0.96195722489683        0.61673919444498
H            1.21125498126919        1.21068322034021       -0.86738167639204
H            0.00482382698576       -0.13814080749043        1.60341509581341
H           -0.00044187744089        1.59984367993169        1.35452030722233
H           -1.24647750269413        1.23849682419150       -0.81981398781929
H           -2.11139041400142        0.95018676326328        0.68917012444188
H           -2.53377187854941       -0.78972910533044       -0.85915140156041
H           -1.67384812511522       -1.41027611343915        0.35616745881908
