 xtb: 6.7.1 (edcfbbe)
          04112515533D

 20 19  0     0  0            999 V2000
   -2.7817   -1.1497   -0.0884 C   0  0  0  0  0  0  0  0  0  0  0  0
   -2.5236    0.3516   -0.0416 C   0  0  0  0  0  0  0  0  0  0  0  0
   -1.2240    0.6773    0.6958 C   0  0  0  0  0  0  0  0  0  0  0  0
   -0.0117    0.2347   -0.0833 C   0  0  0  0  0  0  0  0  0  0  0  0
    0.1044    0.2961   -1.2891 O   0  0  0  0  0  0  0  0  0  0  0  0
    0.9355   -0.2318    0.7235 O   0  0  0  0  0  0  0  0  0  0  0  0
    2.1861   -0.6444    0.1470 C   0  0  0  0  0  0  0  0  0  0  0  0
    3.1372    0.5331   -0.0016 C   0  0  0  0  0  0  0  0  0  0  0  0
   -3.7148   -1.3580   -0.6049 H   0  0  0  0  0  0  0  0  0  0  0  0
   -1.9770   -1.6547   -0.6195 H   0  0  0  0  0  0  0  0  0  0  0  0
   -2.8429   -1.5595    0.9170 H   0  0  0  0  0  0  0  0  0  0  0  0
   -3.3518    0.8499    0.4626 H   0  0  0  0  0  0  0  0  0  0  0  0
   -2.4539    0.7411   -1.0589 H   0  0  0  0  0  0  0  0  0  0  0  0
   -1.1936    0.2085    1.6790 H   0  0  0  0  0  0  0  0  0  0  0  0
   -1.1353    1.7585    0.8245 H   0  0  0  0  0  0  0  0  0  0  0  0
    2.5779   -1.3860    0.8437 H   0  0  0  0  0  0  0  0  0  0  0  0
    1.9869   -1.1039   -0.8260 H   0  0  0  0  0  0  0  0  0  0  0  0
    2.7314    1.2529   -0.7089 H   0  0  0  0  0  0  0  0  0  0  0  0
    3.2803    1.0215    0.9584 H   0  0  0  0  0  0  0  0  0  0  0  0
    4.0942    0.1784   -0.3702 H   0  0  0  0  0  0  0  0  0  0  0  0
  1  2  1  0  0  0  0
  2  3  1  0  0  0  0
  3  4  1  0  0  0  0
  4  5  2  0  0  0  0
  4  6  1  0  0  0  0
  6  7  1  0  0  0  0
  7  8  1  0  0  0  0
  1  9  1  0  0  0  0
  1 10  1  0  0  0  0
  1 11  1  0  0  0  0
  2 12  1  0  0  0  0
  2 13  1  0  0  0  0
  3 14  1  0  0  0  0
  3 15  1  0  0  0  0
  7 16  1  0  0  0  0
  7 17  1  0  0  0  0
  8 18  1  0  0  0  0
  8 19  1  0  0  0  0
  8 20  1  0  0  0  0
M  END
