 xtb: 6.7.1 (edcfbbe)
          04112515563D

 33 35  0     0  0            999 V2000
   -4.4946   -1.2178   -0.2523 C   0  0  0  0  0  0  0  0  0  0  0  0
   -3.6819   -2.3427   -0.2253 C   0  0  0  0  0  0  0  0  0  0  0  0
   -2.3098   -2.2030   -0.1286 C   0  0  0  0  0  0  0  0  0  0  0  0
   -1.7256   -0.9401   -0.0564 C   0  0  0  0  0  0  0  0  0  0  0  0
   -2.5467    0.1931   -0.0832 C   0  0  0  0  0  0  0  0  0  0  0  0
   -3.9286    0.0411   -0.1818 C   0  0  0  0  0  0  0  0  0  0  0  0
   -1.9706    1.5419   -0.0090 C   0  0  0  0  0  0  0  0  0  0  0  0
   -2.6797    2.5458   -0.0391 O   0  0  0  0  0  0  0  0  0  0  0  0
   -0.5046    1.6333    0.1052 C   0  0  0  0  0  0  0  0  0  0  0  0
    0.0416    2.9023    0.1883 C   0  0  0  0  0  0  0  0  0  0  0  0
    1.4195    3.0724    0.3040 C   0  0  0  0  0  0  0  0  0  0  0  0
    2.2473    1.9828    0.3338 C   0  0  0  0  0  0  0  0  0  0  0  0
    1.7337    0.6656    0.2451 C   0  0  0  0  0  0  0  0  0  0  0  0
    0.3209    0.4845    0.1304 C   0  0  0  0  0  0  0  0  0  0  0  0
   -0.2570   -0.8383    0.0443 C   0  0  0  0  0  0  0  0  0  0  0  0
    0.4202   -1.8827    0.0512 O   0  0  0  0  0  0  0  0  0  0  0  0
    2.5567   -0.3877    0.2646 N   0  0  0  0  0  0  0  0  0  0  0  0
    3.9941   -0.3462    0.3910 C   0  0  0  0  0  0  0  0  0  0  0  0
    4.5721   -1.7543    0.2301 C   0  0  0  0  0  0  0  0  0  0  0  0
    4.5421   -2.2125   -1.1023 O   0  0  0  0  0  0  0  0  0  0  0  0
   -5.5653   -1.3237   -0.3281 H   0  0  0  0  0  0  0  0  0  0  0  0
   -4.1187   -3.3274   -0.2801 H   0  0  0  0  0  0  0  0  0  0  0  0
   -1.6610   -3.0661   -0.1067 H   0  0  0  0  0  0  0  0  0  0  0  0
   -4.5365    0.9335   -0.2009 H   0  0  0  0  0  0  0  0  0  0  0  0
   -0.6264    3.7495    0.1638 H   0  0  0  0  0  0  0  0  0  0  0  0
    1.8303    4.0673    0.3726 H   0  0  0  0  0  0  0  0  0  0  0  0
    3.3108    2.1208    0.4303 H   0  0  0  0  0  0  0  0  0  0  0  0
    2.0993   -1.2978    0.2561 H   0  0  0  0  0  0  0  0  0  0  0  0
    4.2825    0.0446    1.3732 H   0  0  0  0  0  0  0  0  0  0  0  0
    4.4215    0.2949   -0.3869 H   0  0  0  0  0  0  0  0  0  0  0  0
    4.0395   -2.4514    0.8899 H   0  0  0  0  0  0  0  0  0  0  0  0
    5.6276   -1.7458    0.5081 H   0  0  0  0  0  0  0  0  0  0  0  0
    3.6241   -2.2733   -1.4003 H   0  0  0  0  0  0  0  0  0  0  0  0
  1  2  4  0  0  0  0
  2  3  4  0  0  0  0
  3  4  4  0  0  0  0
  4  5  4  0  0  0  0
  1  6  4  0  0  0  0
  5  6  4  0  0  0  0
  5  7  1  0  0  0  0
  7  8  2  0  0  0  0
  7  9  1  0  0  0  0
  9 10  4  0  0  0  0
 10 11  4  0  0  0  0
 11 12  2  0  0  0  0
 12 13  4  0  0  0  0
  9 14  4  0  0  0  0
 13 14  4  0  0  0  0
  4 15  1  0  0  0  0
 14 15  1  0  0  0  0
 15 16  2  0  0  0  0
 13 17  4  0  0  0  0
 17 18  1  0  0  0  0
 18 19  1  0  0  0  0
 19 20  1  0  0  0  0
  1 21  1  0  0  0  0
  2 22  1  0  0  0  0
  3 23  1  0  0  0  0
  6 24  1  0  0  0  0
 10 25  1  0  0  0  0
 11 26  1  0  0  0  0
 12 27  1  0  0  0  0
 17 28  1  0  0  0  0
 18 29  1  0  0  0  0
 18 30  1  0  0  0  0
 19 31  1  0  0  0  0
 19 32  1  0  0  0  0
 20 33  1  0  0  0  0
M  END
