16
 xtb: 6.7.1 (edcfbbe)
C            1.84428609156234       -0.76570900515181       -0.10488379723473
C            1.11911509039238        0.39423190773330        0.57435177803440
C            0.01168461433955        1.01207055108611       -0.28482465836070
C           -1.09922078853607        0.04141402597382       -0.69211340715643
N           -1.81677688205565       -0.60738344452955        0.42176311792516
H            2.68709886926817       -1.11181556747073        0.50218297644240
H            1.18064746050565       -1.62241923967153       -0.26285011433454
H            2.23697047771656       -0.46404189267704       -1.08291571559499
H            0.70054887851528        0.05478640833764        1.53079856443079
H            1.84359760872127        1.17881244808132        0.82388933465610
H           -0.43975148480851        1.85333732615027        0.25888307618125
H            0.45640842477805        1.43019623011960       -1.19911548875117
H           -0.69159294431050       -0.74548001003862       -1.33673342151754
H           -1.83146684180385        0.58465026936512       -1.30078051395980
H           -1.14639795287487       -1.15924419661196        0.95018612474715
H           -2.11174685171809        0.12163428794275        1.06734495848375
