22
 xtb: 6.7.1 (edcfbbe)
C            1.96315377043112       -0.00129310798805        1.07587020686831
C            1.36085057053152       -0.42533837909730       -0.26783137238422
C            1.51780803551389        0.67597451768076       -1.30989645934233
N           -0.04535230720897       -0.88839525361290       -0.16507427650370
C           -1.02057274520673        0.15300592413669        0.25841570470292
C           -1.87390031233092       -0.37563974700413        1.40605482993832
C           -1.90236318016285        0.58196099763286       -0.91293204202012
H            1.46455391269715        0.88588863487647        1.48147598039882
H            1.87785801024040       -0.81000747775590        1.81034251052043
H            3.02608972057457        0.23947999988788        0.96146231872992
H            1.93146568494613       -1.29540858325044       -0.61997388222994
H            1.00124234360459        1.59366239825031       -1.00777684403277
H            1.12722497799791        0.36463578322840       -2.28386814835962
H            2.57780470403156        0.92091672630069       -1.43061200398556
H           -0.04453686519075       -1.60157259879001        0.55844301576223
H           -0.48999340478640        1.04384703537012        0.62319833606468
H           -2.63145561694175        0.35858383948461        1.69817820847104
H           -2.39417229214824       -1.29439690855831        1.10813424897500
H           -1.25704880746305       -0.59831038352871        2.28410021864839
H           -1.30105641651759        0.92212151446406       -1.76100022437732
H           -2.56587184503853        1.40235208680742       -0.61602578375206
H           -2.52432222425568       -0.25479735533469       -1.25160723247851
