20
 xtb: 6.7.1 (edcfbbe)
C           -2.69884764372855       -1.25096509673710       -0.31457009177810
C           -2.59824937858443        0.21061102436515        0.11244937271766
C           -1.27023125148852        0.52244363815118        0.80079967582109
C           -0.09201264129643        0.40894260014357       -0.12721650968810
O           -0.11191460811752        0.68314996966523       -1.31703155807674
O            1.01890444672388       -0.00138250328948        0.51216425314510
C            2.24093810189310       -0.08128274885162       -0.29102865424118
C            3.34440381692307       -0.54398125687905        0.62474495485097
H           -2.60007385158392       -1.91655019410034        0.55003110500503
H           -3.66206318124527       -1.45781802694672       -0.79097571189065
H           -1.91072849794461       -1.51191163197364       -1.03000170783255
H           -3.40726218347144        0.44981509990188        0.81086484106480
H           -2.72223580646964        0.86909895763922       -0.75412218126062
H           -1.11167838172715       -0.12543852399062        1.66814080312806
H           -1.26194825843364        1.55761606707219        1.16983983825968
H            2.06614719029416       -0.78418224808342       -1.11105793752041
H            2.44277359656449        0.90923885655428       -0.70951277694728
H            4.27465056686156       -0.61760549078471        0.05337599763968
H            3.49988851941344        0.16478698324561        1.44324052620335
H            3.12118466132317       -1.52888634296628        1.04454958069416
