20
 xtb: 6.7.1 (edcfbbe)
C           -2.37156583050930       -1.27316886969908       -0.49162384605923
C           -2.55027605290882        0.12520340747194        0.09189427588620
C           -1.33709831053173        0.56693501429287        0.92239684261750
C           -0.10350615125623        0.65384309134640        0.06780617978397
O           -0.01001914155015        1.34399554512508       -0.93577957400885
O            0.89622056882855       -0.12361040747542        0.51831635314638
C            2.13598919554468       -0.10576791425298       -0.26210627721224
C            3.08801380676955       -1.07127799722618        0.39605898091893
H           -2.20731597277318       -2.01047784628105        0.30186545047067
H           -3.25549966790052       -1.57819842753202       -1.05986874586729
H           -1.51131304353382       -1.31418570769692       -1.17052818482970
H           -3.43173970451329        0.15179036284870        0.74084805177321
H           -2.72010513421898        0.85153650040891       -0.71042261977976
H           -1.16649468067215       -0.12239208373780        1.75287545328811
H           -1.51011772395318        1.56784371934445        1.33442559493856
H            1.89881346964449       -0.39923091368254       -1.28868341871094
H            2.52340630061428        0.91721915861547       -0.26496887339774
H            3.30106803175231       -0.77298854900822        1.42637406841064
H            2.68003417988850       -2.08590100500980        0.39640174748995
H            4.02952326488482       -1.07942549307031       -0.16099627722182
