 xtb: 6.7.1 (edcfbbe)
          04112514553D

 31 32  0     0  0            999 V2000
   -3.7494    0.5444   -1.7983 C   0  0  0  0  0  0  0  0  0  0  0  0
   -3.2842   -0.4279   -0.7132 C   0  0  0  0  0  0  0  0  0  0  0  0
   -3.5690   -1.4513   -0.9672 H   0  0  0  0  0  0  0  0  0  0  0  0
   -1.7843   -0.3674   -0.5274 C   0  0  0  0  0  0  0  0  0  0  0  0
   -0.9826   -1.4609   -0.8284 C   0  0  0  0  0  0  0  0  0  0  0  0
    0.3890   -1.3940   -0.6752 C   0  0  0  0  0  0  0  0  0  0  0  0
    1.0161   -0.2371   -0.2155 C   0  0  0  0  0  0  0  0  0  0  0  0
    0.1868    0.8385    0.0872 C   0  0  0  0  0  0  0  0  0  0  0  0
   -1.1839    0.7934   -0.0569 C   0  0  0  0  0  0  0  0  0  0  0  0
    0.7292    1.9918    0.5801 F   0  0  0  0  0  0  0  0  0  0  0  0
    2.4779   -0.1788   -0.0575 C   0  0  0  0  0  0  0  0  0  0  0  0
    3.1559   -1.2418    0.5352 C   0  0  0  0  0  0  0  0  0  0  0  0
    4.5298   -1.2015    0.6820 C   0  0  0  0  0  0  0  0  0  0  0  0
    5.2460   -0.1038    0.2334 C   0  0  0  0  0  0  0  0  0  0  0  0
    4.5801    0.9554   -0.3604 C   0  0  0  0  0  0  0  0  0  0  0  0
    3.2050    0.9213   -0.5043 C   0  0  0  0  0  0  0  0  0  0  0  0
   -3.9090   -0.0929    0.6269 C   0  0  0  0  0  0  0  0  0  0  0  0
   -4.1390    1.0268    1.0267 O   0  0  0  0  0  0  0  0  0  0  0  0
   -4.1469   -1.1767    1.3449 O   0  0  0  0  0  0  0  0  0  0  0  0
   -4.8119    0.4157   -1.9864 H   0  0  0  0  0  0  0  0  0  0  0  0
   -3.5789    1.5694   -1.4806 H   0  0  0  0  0  0  0  0  0  0  0  0
   -3.2003    0.3609   -2.7169 H   0  0  0  0  0  0  0  0  0  0  0  0
   -1.4338   -2.3712   -1.1902 H   0  0  0  0  0  0  0  0  0  0  0  0
    0.9994   -2.2460   -0.9297 H   0  0  0  0  0  0  0  0  0  0  0  0
   -1.7723    1.6562    0.2147 H   0  0  0  0  0  0  0  0  0  0  0  0
    2.5976   -2.0910    0.8995 H   0  0  0  0  0  0  0  0  0  0  0  0
    5.0437   -2.0280    1.1491 H   0  0  0  0  0  0  0  0  0  0  0  0
    6.3188   -0.0730    0.3471 H   0  0  0  0  0  0  0  0  0  0  0  0
    5.1327    1.8127   -0.7142 H   0  0  0  0  0  0  0  0  0  0  0  0
    2.6936    1.7472   -0.9761 H   0  0  0  0  0  0  0  0  0  0  0  0
   -4.5153   -0.9793    2.2284 H   0  0  0  0  0  0  0  0  0  0  0  0
  1  2  1  0  0  0  0
  2  3  1  0  0  0  0
  2  4  1  0  0  0  0
  4  5  4  0  0  0  0
  5  6  4  0  0  0  0
  6  7  4  0  0  0  0
  7  8  4  0  0  0  0
  4  9  4  0  0  0  0
  8  9  4  0  0  0  0
  8 10  1  0  0  0  0
  7 11  1  0  0  0  0
 11 12  4  0  0  0  0
 12 13  4  0  0  0  0
 13 14  4  0  0  0  0
 14 15  4  0  0  0  0
 11 16  4  0  0  0  0
 15 16  4  0  0  0  0
  2 17  1  0  0  0  0
 17 18  2  0  0  0  0
 17 19  1  0  0  0  0
  1 20  1  0  0  0  0
  1 21  1  0  0  0  0
  1 22  1  0  0  0  0
  5 23  1  0  0  0  0
  6 24  1  0  0  0  0
  9 25  1  0  0  0  0
 12 26  1  0  0  0  0
 13 27  1  0  0  0  0
 14 28  1  0  0  0  0
 15 29  1  0  0  0  0
 16 30  1  0  0  0  0
 19 31  1  0  0  0  0
M  END
