 xtb: 6.7.1 (edcfbbe)
          04112515533D

 20 19  0     0  0            999 V2000
   -2.8177    0.8200    0.6908 C   0  0  0  0  0  0  0  0  0  0  0  0
   -2.5128   -0.2878   -0.3104 C   0  0  0  0  0  0  0  0  0  0  0  0
   -1.1996   -0.9986    0.0182 C   0  0  0  0  0  0  0  0  0  0  0  0
   -0.0054   -0.1063   -0.2062 C   0  0  0  0  0  0  0  0  0  0  0  0
    0.0958    0.7184   -1.0897 O   0  0  0  0  0  0  0  0  0  0  0  0
    0.9461   -0.3417    0.6915 O   0  0  0  0  0  0  0  0  0  0  0  0
    2.1811    0.3865    0.5877 C   0  0  0  0  0  0  0  0  0  0  0  0
    3.1377   -0.2870   -0.3845 C   0  0  0  0  0  0  0  0  0  0  0  0
   -3.7606    1.3021    0.4471 H   0  0  0  0  0  0  0  0  0  0  0  0
   -2.8841    0.4180    1.6991 H   0  0  0  0  0  0  0  0  0  0  0  0
   -2.0330    1.5738    0.6695 H   0  0  0  0  0  0  0  0  0  0  0  0
   -2.4376    0.1383   -1.3125 H   0  0  0  0  0  0  0  0  0  0  0  0
   -3.3219   -1.0185   -0.3060 H   0  0  0  0  0  0  0  0  0  0  0  0
   -1.0728   -1.8612   -0.6401 H   0  0  0  0  0  0  0  0  0  0  0  0
   -1.1807   -1.3480    1.0502 H   0  0  0  0  0  0  0  0  0  0  0  0
    1.9578    1.4072    0.2625 H   0  0  0  0  0  0  0  0  0  0  0  0
    2.5822    0.3905    1.6015 H   0  0  0  0  0  0  0  0  0  0  0  0
    2.7210   -0.2693   -1.3891 H   0  0  0  0  0  0  0  0  0  0  0  0
    4.0830    0.2458   -0.3861 H   0  0  0  0  0  0  0  0  0  0  0  0
    3.3068   -1.3188   -0.0887 H   0  0  0  0  0  0  0  0  0  0  0  0
  1  2  1  0  0  0  0
  2  3  1  0  0  0  0
  3  4  1  0  0  0  0
  4  5  2  0  0  0  0
  4  6  1  0  0  0  0
  6  7  1  0  0  0  0
  7  8  1  0  0  0  0
  1  9  1  0  0  0  0
  1 10  1  0  0  0  0
  1 11  1  0  0  0  0
  2 12  1  0  0  0  0
  2 13  1  0  0  0  0
  3 14  1  0  0  0  0
  3 15  1  0  0  0  0
  7 16  1  0  0  0  0
  7 17  1  0  0  0  0
  8 18  1  0  0  0  0
  8 19  1  0  0  0  0
  8 20  1  0  0  0  0
M  END
