 xtb: 6.7.1 (edcfbbe)
          04112515543D

 31 32  0     0  0            999 V2000
   -3.5380    0.1032   -1.8418 C   0  0  0  0  0  0  0  0  0  0  0  0
   -3.1763   -0.4274   -0.4542 C   0  0  0  0  0  0  0  0  0  0  0  0
   -3.6565   -1.3956   -0.2859 H   0  0  0  0  0  0  0  0  0  0  0  0
   -1.6788   -0.5925   -0.2798 C   0  0  0  0  0  0  0  0  0  0  0  0
   -1.1509   -1.8619    0.0280 C   0  0  0  0  0  0  0  0  0  0  0  0
    0.1931   -2.0455    0.1831 C   0  0  0  0  0  0  0  0  0  0  0  0
    1.0922   -0.9660    0.0441 C   0  0  0  0  0  0  0  0  0  0  0  0
    2.4792   -1.1196    0.1980 C   0  0  0  0  0  0  0  0  0  0  0  0
    3.3329   -0.0467    0.0607 C   0  0  0  0  0  0  0  0  0  0  0  0
    2.8091    1.2270   -0.2390 C   0  0  0  0  0  0  0  0  0  0  0  0
    1.4610    1.3961   -0.3928 C   0  0  0  0  0  0  0  0  0  0  0  0
    0.5654    0.3173   -0.2587 C   0  0  0  0  0  0  0  0  0  0  0  0
   -0.8263    0.4730   -0.4121 C   0  0  0  0  0  0  0  0  0  0  0  0
    4.6624   -0.3075    0.2307 O   0  0  0  0  0  0  0  0  0  0  0  0
    5.5917    0.7520    0.1021 C   0  0  0  0  0  0  0  0  0  0  0  0
   -3.6378    0.4891    0.6578 C   0  0  0  0  0  0  0  0  0  0  0  0
   -4.0504    0.0890    1.7280 O   0  0  0  0  0  0  0  0  0  0  0  0
   -3.5159    1.7738    0.3809 O   0  0  0  0  0  0  0  0  0  0  0  0
   -3.1089    1.0872   -2.0017 H   0  0  0  0  0  0  0  0  0  0  0  0
   -3.1531   -0.5757   -2.5977 H   0  0  0  0  0  0  0  0  0  0  0  0
   -4.6178    0.1718   -1.9463 H   0  0  0  0  0  0  0  0  0  0  0  0
   -1.8269   -2.6967    0.1404 H   0  0  0  0  0  0  0  0  0  0  0  0
    0.5883   -3.0229    0.4163 H   0  0  0  0  0  0  0  0  0  0  0  0
    2.8934   -2.0890    0.4282 H   0  0  0  0  0  0  0  0  0  0  0  0
    3.4667    2.0740   -0.3487 H   0  0  0  0  0  0  0  0  0  0  0  0
    1.0657    2.3742   -0.6230 H   0  0  0  0  0  0  0  0  0  0  0  0
   -1.2112    1.4576   -0.6328 H   0  0  0  0  0  0  0  0  0  0  0  0
    6.5647    0.2988    0.2783 H   0  0  0  0  0  0  0  0  0  0  0  0
    5.4107    1.5309    0.8474 H   0  0  0  0  0  0  0  0  0  0  0  0
    5.5653    1.1829   -0.9021 H   0  0  0  0  0  0  0  0  0  0  0  0
   -3.7888    2.3451    1.1248 H   0  0  0  0  0  0  0  0  0  0  0  0
  1  2  1  0  0  0  0
  2  3  1  0  0  0  0
  2  4  1  0  0  0  0
  4  5  4  0  0  0  0
  5  6  2  0  0  0  0
  6  7  4  0  0  0  0
  7  8  4  0  0  0  0
  8  9  4  0  0  0  0
  9 10  4  0  0  0  0
 10 11  2  0  0  0  0
  7 12  4  0  0  0  0
 11 12  4  0  0  0  0
  4 13  2  0  0  0  0
 12 13  4  0  0  0  0
  9 14  1  0  0  0  0
 14 15  1  0  0  0  0
  2 16  1  0  0  0  0
 16 17  2  0  0  0  0
 16 18  1  0  0  0  0
  1 19  1  0  0  0  0
  1 20  1  0  0  0  0
  1 21  1  0  0  0  0
  5 22  1  0  0  0  0
  6 23  1  0  0  0  0
  8 24  1  0  0  0  0
 10 25  1  0  0  0  0
 11 26  1  0  0  0  0
 13 27  1  0  0  0  0
 15 28  1  0  0  0  0
 15 29  1  0  0  0  0
 15 30  1  0  0  0  0
 18 31  1  0  0  0  0
M  END
