 xtb: 6.7.1 (edcfbbe)
          04112518223D

 33 35  0     0  0            999 V2000
   -4.4937   -1.2175   -0.2612 C   0  0  0  0  0  0  0  0  0  0  0  0
   -3.6798   -2.3417   -0.2474 C   0  0  0  0  0  0  0  0  0  0  0  0
   -2.3080   -2.2017   -0.1471 C   0  0  0  0  0  0  0  0  0  0  0  0
   -1.7251   -0.9392   -0.0594 C   0  0  0  0  0  0  0  0  0  0  0  0
   -2.5473    0.1935   -0.0747 C   0  0  0  0  0  0  0  0  0  0  0  0
   -3.9290    0.0411   -0.1755 C   0  0  0  0  0  0  0  0  0  0  0  0
   -1.9725    1.5421    0.0129 C   0  0  0  0  0  0  0  0  0  0  0  0
   -2.6832    2.5453    0.0005 O   0  0  0  0  0  0  0  0  0  0  0  0
   -0.5058    1.6341    0.1164 C   0  0  0  0  0  0  0  0  0  0  0  0
    0.0405    2.9033    0.1968 C   0  0  0  0  0  0  0  0  0  0  0  0
    1.4193    3.0741    0.3007 C   0  0  0  0  0  0  0  0  0  0  0  0
    2.2477    1.9847    0.3250 C   0  0  0  0  0  0  0  0  0  0  0  0
    1.7338    0.6673    0.2428 C   0  0  0  0  0  0  0  0  0  0  0  0
    0.3205    0.4857    0.1348 C   0  0  0  0  0  0  0  0  0  0  0  0
   -0.2569   -0.8372    0.0461 C   0  0  0  0  0  0  0  0  0  0  0  0
    0.4206   -1.8814    0.0529 O   0  0  0  0  0  0  0  0  0  0  0  0
    2.5570   -0.3857    0.2624 N   0  0  0  0  0  0  0  0  0  0  0  0
    3.9952   -0.3427    0.3792 C   0  0  0  0  0  0  0  0  0  0  0  0
    4.5717   -1.7541    0.2421 C   0  0  0  0  0  0  0  0  0  0  0  0
    4.5378   -2.2368   -1.0815 O   0  0  0  0  0  0  0  0  0  0  0  0
   -5.5642   -1.3235   -0.3388 H   0  0  0  0  0  0  0  0  0  0  0  0
   -4.1154   -3.3261   -0.3149 H   0  0  0  0  0  0  0  0  0  0  0  0
   -1.6582   -3.0643   -0.1346 H   0  0  0  0  0  0  0  0  0  0  0  0
   -4.5378    0.9331   -0.1844 H   0  0  0  0  0  0  0  0  0  0  0  0
   -0.6281    3.7502    0.1783 H   0  0  0  0  0  0  0  0  0  0  0  0
    1.8303    4.0692    0.3647 H   0  0  0  0  0  0  0  0  0  0  0  0
    3.3120    2.1233    0.4123 H   0  0  0  0  0  0  0  0  0  0  0  0
    2.1002   -1.2960    0.2552 H   0  0  0  0  0  0  0  0  0  0  0  0
    4.2894    0.0665    1.3520 H   0  0  0  0  0  0  0  0  0  0  0  0
    4.4185    0.2833   -0.4132 H   0  0  0  0  0  0  0  0  0  0  0  0
    4.0405   -2.4383    0.9162 H   0  0  0  0  0  0  0  0  0  0  0  0
    5.6279   -1.7412    0.5170 H   0  0  0  0  0  0  0  0  0  0  0  0
    3.6190   -2.3066   -1.3747 H   0  0  0  0  0  0  0  0  0  0  0  0
  1  2  4  0  0  0  0
  2  3  4  0  0  0  0
  3  4  4  0  0  0  0
  4  5  4  0  0  0  0
  1  6  4  0  0  0  0
  5  6  4  0  0  0  0
  5  7  1  0  0  0  0
  7  8  2  0  0  0  0
  7  9  1  0  0  0  0
  9 10  4  0  0  0  0
 10 11  4  0  0  0  0
 11 12  2  0  0  0  0
 12 13  4  0  0  0  0
  9 14  4  0  0  0  0
 13 14  4  0  0  0  0
  4 15  1  0  0  0  0
 14 15  1  0  0  0  0
 15 16  2  0  0  0  0
 13 17  4  0  0  0  0
 17 18  1  0  0  0  0
 18 19  1  0  0  0  0
 19 20  1  0  0  0  0
  1 21  1  0  0  0  0
  2 22  1  0  0  0  0
  3 23  1  0  0  0  0
  6 24  1  0  0  0  0
 10 25  1  0  0  0  0
 11 26  1  0  0  0  0
 12 27  1  0  0  0  0
 17 28  1  0  0  0  0
 18 29  1  0  0  0  0
 18 30  1  0  0  0  0
 19 31  1  0  0  0  0
 19 32  1  0  0  0  0
 20 33  1  0  0  0  0
M  END
