31
 xtb: 6.7.1 (edcfbbe)
C           -3.55046810996338        0.13427910591199       -1.85044237609501
C           -3.17574640976961       -0.39475331308423       -0.46512125713901
H           -3.64440476148899       -1.37014736901173       -0.30732924789220
C           -1.67292233749772       -0.57300725136677       -0.28659719212723
C           -1.15393633253138       -1.85005429247250        0.04064756205905
C            0.19550056155516       -2.04952562644703        0.20241485455984
C            1.11039416512790       -0.97623177505782        0.05550065547845
C            2.50075217702646       -1.14474563330612        0.21606947448161
C            3.35754266303353       -0.07139268195213        0.06747362529553
C            2.85346670087838        1.21329997530756       -0.24752690759667
C            1.49938080192017        1.39223844714502       -0.40894865086549
C            0.59013768376961        0.31883972615406       -0.26675267131165
C           -0.80408888123831        0.48765774280579       -0.43126884773049
O            4.69264828105699       -0.33255737543871        0.24239902350186
C            5.61433416838007        0.76119677617377        0.09897267074480
C           -3.67107910469976        0.46821172136795        0.67670879316904
O           -3.95208178013698        0.03736545815683        1.78271479300646
O           -3.73612558063996        1.77920856115751        0.37222827233991
H           -3.06178468449435        1.08746248580947       -2.06515049477101
H           -3.23608553005024       -0.59026993283595       -2.60684038312778
H           -4.63271964897770        0.27205803239768       -1.93283611564486
H           -1.84153790897872       -2.68281921149481        0.15731181492276
H            0.57855477458135       -3.03662466530551        0.44540545876787
H            2.90354586327159       -2.12362172771409        0.45899966189284
H            3.52144732824750        2.05761241545195       -0.36337177153257
H            1.11278741953153        2.37810361371074       -0.65133729208256
H           -1.17781922912136        1.47863434871472       -0.67511044422200
H            6.60206762270978        0.33541579963766        0.27902686196679
H            5.41439374124283        1.54489708427457        0.83781396303800
H            5.57599918543476        1.17937667763889       -0.91287146759846
H           -4.00822107168922        2.26582955575332        1.17036610396292
