 xtb: 6.7.1 (edcfbbe)
          04112512433D

 16 15  0     0  0            999 V2000
    2.0104   -0.6382   -0.1109 C   0  0  0  0  0  0  0  0  0  0  0  0
    1.1065    0.3582    0.6075 C   0  0  0  0  0  0  0  0  0  0  0  0
   -0.0009    0.9248   -0.2843 C   0  0  0  0  0  0  0  0  0  0  0  0
   -1.0774   -0.0860   -0.6846 C   0  0  0  0  0  0  0  0  0  0  0  0
   -1.9335   -0.4170    0.4491 N   0  0  0  0  0  0  0  0  0  0  0  0
    2.8163   -0.9566    0.5462 H   0  0  0  0  0  0  0  0  0  0  0  0
    1.4581   -1.5224   -0.4195 H   0  0  0  0  0  0  0  0  0  0  0  0
    2.4481   -0.1822   -0.9962 H   0  0  0  0  0  0  0  0  0  0  0  0
    0.6660   -0.1139    1.4877 H   0  0  0  0  0  0  0  0  0  0  0  0
    1.7168    1.1924    0.9603 H   0  0  0  0  0  0  0  0  0  0  0  0
   -0.4955    1.7429    0.2411 H   0  0  0  0  0  0  0  0  0  0  0  0
    0.4497    1.3268   -1.1939 H   0  0  0  0  0  0  0  0  0  0  0  0
   -0.6038   -0.9715   -1.1395 H   0  0  0  0  0  0  0  0  0  0  0  0
   -1.7177    0.3702   -1.4455 H   0  0  0  0  0  0  0  0  0  0  0  0
   -1.3855   -0.8777    1.1679 H   0  0  0  0  0  0  0  0  0  0  0  0
   -2.6526   -1.0680    0.1552 H   0  0  0  0  0  0  0  0  0  0  0  0
  1  2  1  0  0  0  0
  2  3  1  0  0  0  0
  3  4  1  0  0  0  0
  4  5  1  0  0  0  0
  1  6  1  0  0  0  0
  1  7  1  0  0  0  0
  1  8  1  0  0  0  0
  2  9  1  0  0  0  0
  2 10  1  0  0  0  0
  3 11  1  0  0  0  0
  3 12  1  0  0  0  0
  4 13  1  0  0  0  0
  4 14  1  0  0  0  0
  5 15  1  0  0  0  0
  5 16  1  0  0  0  0
M  END
