13
 xtb: 6.7.1 (edcfbbe)
C           -2.73779049190089        0.14851065076108       -0.05168522079170
C           -1.30953054747585        0.20599623379969        0.47970726322113
C           -0.32819888513788       -0.14553668512644       -0.63676665033417
N            1.06991917374646       -0.08690305907174       -0.09019542512200
O            1.65465139230467        0.99134694174810       -0.11923479975810
O            1.53643830809263       -1.10593672059574        0.40931959014549
H           -2.98318582472267       -0.85430137606793       -0.41539104823908
H           -3.44519800143304        0.40418906685405        0.74209183557451
H           -2.88075554077164        0.85570453837159       -0.87488812367431
H           -1.18078021018605       -0.50171637363619        1.30544656848283
H           -1.08156267979611        1.20987849065950        0.85315809479430
H           -0.47713432206468       -1.16402139883296       -0.99883908929318
H           -0.37297001696751        0.57630442425066       -1.45387315054672
