 xtb: 6.7.1 (edcfbbe)
          04112515593D

 17 16  0     0  0            999 V2000
    2.1520   -1.0106   -0.4833 C   0  0  0  0  0  0  0  0  0  0  0  0
    2.1082    0.4415   -0.0164 C   0  0  0  0  0  0  0  0  0  0  0  0
    0.9738    0.7165    0.9827 C   0  0  0  0  0  0  0  0  0  0  0  0
   -0.2349    1.4295    0.3723 C   0  0  0  0  0  0  0  0  0  0  0  0
   -0.9578    0.6366   -0.7012 C   0  0  0  0  0  0  0  0  0  0  0  0
   -1.6712   -0.8758   -0.0309 Cl  0  0  0  0  0  0  0  0  0  0  0  0
    2.3608   -1.6703    0.3563 H   0  0  0  0  0  0  0  0  0  0  0  0
    2.9342   -1.1475   -1.2267 H   0  0  0  0  0  0  0  0  0  0  0  0
    1.2056   -1.3167   -0.9209 H   0  0  0  0  0  0  0  0  0  0  0  0
    3.0661    0.6757    0.4518 H   0  0  0  0  0  0  0  0  0  0  0  0
    2.0025    1.1001   -0.8804 H   0  0  0  0  0  0  0  0  0  0  0  0
    1.3470    1.3456    1.7923 H   0  0  0  0  0  0  0  0  0  0  0  0
    0.6456   -0.2244    1.4273 H   0  0  0  0  0  0  0  0  0  0  0  0
    0.0920    2.3658   -0.0853 H   0  0  0  0  0  0  0  0  0  0  0  0
   -0.9403    1.6726    1.1692 H   0  0  0  0  0  0  0  0  0  0  0  0
   -1.7934    1.2012   -1.1107 H   0  0  0  0  0  0  0  0  0  0  0  0
   -0.2882    0.3291   -1.5009 H   0  0  0  0  0  0  0  0  0  0  0  0
  1  2  1  0  0  0  0
  2  3  1  0  0  0  0
  3  4  1  0  0  0  0
  4  5  1  0  0  0  0
  5  6  1  0  0  0  0
  1  7  1  0  0  0  0
  1  8  1  0  0  0  0
  1  9  1  0  0  0  0
  2 10  1  0  0  0  0
  2 11  1  0  0  0  0
  3 12  1  0  0  0  0
  3 13  1  0  0  0  0
  4 14  1  0  0  0  0
  4 15  1  0  0  0  0
  5 16  1  0  0  0  0
  5 17  1  0  0  0  0
M  END
