 xtb: 6.7.1 (edcfbbe)
          04112516483D

 33 35  0     0  0            999 V2000
   -4.6952   -0.9899   -0.2675 C   0  0  0  0  0  0  0  0  0  0  0  0
   -4.0001   -2.1826   -0.1225 C   0  0  0  0  0  0  0  0  0  0  0  0
   -2.6261   -2.1691    0.0295 C   0  0  0  0  0  0  0  0  0  0  0  0
   -1.9219   -0.9667    0.0380 C   0  0  0  0  0  0  0  0  0  0  0  0
   -2.6243    0.2346   -0.1093 C   0  0  0  0  0  0  0  0  0  0  0  0
   -4.0097    0.2101   -0.2604 C   0  0  0  0  0  0  0  0  0  0  0  0
   -1.9187    1.5221   -0.1077 C   0  0  0  0  0  0  0  0  0  0  0  0
   -2.5227    2.5858   -0.2313 O   0  0  0  0  0  0  0  0  0  0  0  0
   -0.4538    1.4776    0.0449 C   0  0  0  0  0  0  0  0  0  0  0  0
    0.2146    2.6892    0.0172 C   0  0  0  0  0  0  0  0  0  0  0  0
    1.6004    2.7322    0.1453 C   0  0  0  0  0  0  0  0  0  0  0  0
    2.3132    1.5745    0.3056 C   0  0  0  0  0  0  0  0  0  0  0  0
    1.6731    0.3120    0.3520 C   0  0  0  0  0  0  0  0  0  0  0  0
    0.2517    0.2618    0.2089 C   0  0  0  0  0  0  0  0  0  0  0  0
   -0.4561   -1.0006    0.2097 C   0  0  0  0  0  0  0  0  0  0  0  0
    0.1067   -2.1021    0.3411 O   0  0  0  0  0  0  0  0  0  0  0  0
    2.3752   -0.8124    0.5525 N   0  0  0  0  0  0  0  0  0  0  0  0
    3.8079   -0.9285    0.6016 C   0  0  0  0  0  0  0  0  0  0  0  0
    4.4396   -0.9076   -0.8067 C   0  0  0  0  0  0  0  0  0  0  0  0
    5.8452   -0.9062   -0.7588 O   0  0  0  0  0  0  0  0  0  0  0  0
   -5.7672   -0.9974   -0.3856 H   0  0  0  0  0  0  0  0  0  0  0  0
   -4.5304   -3.1220   -0.1276 H   0  0  0  0  0  0  0  0  0  0  0  0
   -2.0677   -3.0862    0.1453 H   0  0  0  0  0  0  0  0  0  0  0  0
   -4.5241    1.1532   -0.3713 H   0  0  0  0  0  0  0  0  0  0  0  0
   -0.3644    3.5909   -0.1097 H   0  0  0  0  0  0  0  0  0  0  0  0
    2.1107    3.6820    0.1154 H   0  0  0  0  0  0  0  0  0  0  0  0
    3.3849    1.6240    0.3977 H   0  0  0  0  0  0  0  0  0  0  0  0
    1.8294   -1.6710    0.5074 H   0  0  0  0  0  0  0  0  0  0  0  0
    4.0426   -1.8761    1.0896 H   0  0  0  0  0  0  0  0  0  0  0  0
    4.2429   -0.1222    1.1972 H   0  0  0  0  0  0  0  0  0  0  0  0
    4.1591    0.0129   -1.3243 H   0  0  0  0  0  0  0  0  0  0  0  0
    4.0659   -1.7575   -1.3914 H   0  0  0  0  0  0  0  0  0  0  0  0
    6.1574   -1.7391   -0.3784 H   0  0  0  0  0  0  0  0  0  0  0  0
  1  2  4  0  0  0  0
  2  3  4  0  0  0  0
  3  4  4  0  0  0  0
  4  5  4  0  0  0  0
  1  6  4  0  0  0  0
  5  6  4  0  0  0  0
  5  7  1  0  0  0  0
  7  8  2  0  0  0  0
  7  9  1  0  0  0  0
  9 10  4  0  0  0  0
 10 11  4  0  0  0  0
 11 12  2  0  0  0  0
 12 13  4  0  0  0  0
  9 14  4  0  0  0  0
 13 14  4  0  0  0  0
  4 15  1  0  0  0  0
 14 15  1  0  0  0  0
 15 16  2  0  0  0  0
 13 17  4  0  0  0  0
 17 18  1  0  0  0  0
 18 19  1  0  0  0  0
 19 20  1  0  0  0  0
  1 21  1  0  0  0  0
  2 22  1  0  0  0  0
  3 23  1  0  0  0  0
  6 24  1  0  0  0  0
 10 25  1  0  0  0  0
 11 26  1  0  0  0  0
 12 27  1  0  0  0  0
 17 28  1  0  0  0  0
 18 29  1  0  0  0  0
 18 30  1  0  0  0  0
 19 31  1  0  0  0  0
 19 32  1  0  0  0  0
 20 33  1  0  0  0  0
M  END
