31
 xtb: 6.7.1 (edcfbbe)
C           -3.82081373492009        0.97019906371923       -1.64734548459492
C           -3.33123679906426       -0.07470261002686       -0.64823524738251
H           -3.58889381917765       -1.07886634098543       -1.00076956009644
C           -1.82557944089176       -0.02528646852791       -0.44989185559616
C           -1.21129211683574        1.11994296694401        0.06514574387583
C            0.16484497903139        1.16464162000445        0.23584040384114
C            0.98750190943139        0.07675655309522       -0.09391820063671
C            0.33525733383589       -1.04476104648432       -0.60537961136394
C           -1.03396723327155       -1.12102744850626       -0.78720380412498
F            1.07360476326625       -2.12123470352709       -0.98503104963878
C            2.45245147603258        0.14347141371885        0.08076626581637
C            3.17290746394684       -0.92115555012845        0.63990415366005
C            4.54823688625935       -0.82314584114662        0.82202480346224
C            5.22790527427292        0.33372092686010        0.44651422118209
C            4.52061233589393        1.39740257773762       -0.10895003461971
C            3.14476569563621        1.30435772984086       -0.28991076623771
C           -3.99786542465293        0.09610068570265        0.70191118020252
O           -4.61200253050781        1.08061855803009        1.06798994998652
O           -3.81845036121317       -0.98758103868138        1.48819855949472
H           -3.58090503382511        1.98219342414943       -1.31099780111247
H           -3.34010219032446        0.80337378321896       -2.61471465965043
H           -4.90405231076999        0.89717581909077       -1.77901036507969
H           -1.81270399130905        1.97982391749191        0.34446513104020
H            0.62516164437202        2.05502108551007        0.65241096753496
H           -1.46921156557121       -2.02589986957207       -1.19891390902053
H            2.65209423288594       -1.81896169715782        0.95491634576494
H            5.09057149946315       -1.65291467496398        1.26453047736115
H            6.30167335197564        0.40602405770241        0.58700088389404
H            5.04183220902831        2.30118685946997       -0.40883462474017
H            2.60134906756114        2.13125154963461       -0.73671232642290
H           -4.23554123626206       -0.81592686905815        2.35062758625087
