16
 xtb: 6.7.1 (edcfbbe)
C            1.78966183218395       -0.82944355296416        0.37857019270043
C            1.20663684837770        0.55596478523932        0.09520951051132
C            0.02243869732831        0.56352041015396       -0.88970125152110
C           -1.35447287385587        0.50790940597523       -0.23870512374770
N           -1.58896493250734       -0.74890411889948        0.50183352679223
H            1.05301431623129       -1.51358970889255        0.80971276118758
H            2.16036342295049       -1.28637332935146       -0.54594453513193
H            2.63060515897719       -0.76485584960650        1.07752954756783
H            0.89621829497239        1.02953313145221        1.03704688067731
H            2.00944590730119        1.18449028904922       -0.30743362881821
H            0.05283356555520        1.48531703748446       -1.48292894394544
H            0.12800131261176       -0.26832349319217       -1.59963685601919
H           -2.11743501663640        0.58204073512814       -1.02237484582772
H           -1.47185242232338        1.39905870825119        0.40094875763355
H           -2.50656057815550       -0.69074545399695        0.93361818090688
H           -0.93922881594409       -0.78355177506576        1.28236507166777
