31
 xtb: 6.7.1 (edcfbbe)
C           -3.57366078358437       -1.11424777210811       -1.43681609820092
C           -3.14598362884214       -0.66048368107017       -0.04315928491231
H           -3.54870667976608       -1.35323761103072        0.70647839059238
C           -1.63307384864527       -0.63167836294144        0.11594924674794
C           -0.99294881028474       -1.54536699086531        0.98380108208873
C            0.37629629998534       -1.55432002067973        1.11815015976262
C            1.18253737360460       -0.64229884457088        0.39590867780017
C            2.59514115008727       -0.63600390150442        0.51813076275480
C            3.33835853434170        0.27321593189052       -0.20337103169615
C            2.70611962449603        1.20578846754735       -1.06487861444018
C            1.34374276684937        1.21136634730492       -1.19466153231761
C            0.53800763705676        0.29102070504812       -0.47490368157955
C           -0.86845440513440        0.27136649405449       -0.59503161257424
O            4.70328590758586        0.36966525128783       -0.16713568396247
C            5.40076781992668       -0.56011895128609        0.67619516493568
C           -3.70960315972889        0.70832037357379        0.29066656298450
O           -4.25082077668772        1.45456635843849       -0.50072843291185
O           -3.57830585088346        1.11226104692988        1.57825756160679
H           -3.17690948509241       -2.11411241544693       -1.63091303289789
H           -4.66379006360341       -1.14954374601283       -1.51663384533312
H           -3.18989046870903       -0.43482243041274       -2.20253197948340
H           -1.59765105003068       -2.25217448365484        1.54488587252958
H            0.85593864765852       -2.26563733362942        1.78452545370371
H            3.05960220165255       -1.35433413306145        1.18327990692803
H            3.32581437607305        1.90750305122019       -1.61400019781183
H            0.86271606050001        1.92541586651472       -1.85682006523571
H           -1.34276488136074        0.98736965935910       -1.26274176300420
H            5.10928882085020       -0.43216354740328        1.72479415672860
H            6.45993989305553       -0.32896589786443        0.55898715779043
H            5.21126671645053       -1.59204456812827        0.35957758633558
H           -3.13931484354802        0.42657393735143        2.10756751014470
