 xtb: 6.7.1 (edcfbbe)
          04112516563D

 31 32  0     0  0            999 V2000
   -3.5989    0.0535    1.8860 C   0  0  0  0  0  0  0  0  0  0  0  0
   -3.0552    0.5285    0.5385 C   0  0  0  0  0  0  0  0  0  0  0  0
   -3.1782    1.6093    0.4345 H   0  0  0  0  0  0  0  0  0  0  0  0
   -1.5871    0.1873    0.3801 C   0  0  0  0  0  0  0  0  0  0  0  0
   -1.1802   -1.1604    0.3529 C   0  0  0  0  0  0  0  0  0  0  0  0
    0.1397   -1.4901    0.2291 C   0  0  0  0  0  0  0  0  0  0  0  0
    1.1301   -0.4909    0.1267 C   0  0  0  0  0  0  0  0  0  0  0  0
    2.4982   -0.8110    0.0035 C   0  0  0  0  0  0  0  0  0  0  0  0
    3.4372    0.1850   -0.0968 C   0  0  0  0  0  0  0  0  0  0  0  0
    3.0309    1.5404   -0.0779 C   0  0  0  0  0  0  0  0  0  0  0  0
    1.7149    1.8691    0.0399 C   0  0  0  0  0  0  0  0  0  0  0  0
    0.7244    0.8674    0.1462 C   0  0  0  0  0  0  0  0  0  0  0  0
   -0.6439    1.1760    0.2696 C   0  0  0  0  0  0  0  0  0  0  0  0
    4.7819   -0.0050   -0.2184 O   0  0  0  0  0  0  0  0  0  0  0  0
    5.2770   -1.3296   -0.2431 C   0  0  0  0  0  0  0  0  0  0  0  0
   -3.7798   -0.1314   -0.6139 C   0  0  0  0  0  0  0  0  0  0  0  0
   -4.2278   -1.2572   -0.6061 O   0  0  0  0  0  0  0  0  0  0  0  0
   -3.8406    0.6551   -1.6770 O   0  0  0  0  0  0  0  0  0  0  0  0
   -3.5940   -1.0322    1.9311 H   0  0  0  0  0  0  0  0  0  0  0  0
   -2.9822    0.4452    2.6897 H   0  0  0  0  0  0  0  0  0  0  0  0
   -4.6213    0.3971    2.0211 H   0  0  0  0  0  0  0  0  0  0  0  0
   -1.9301   -1.9352    0.4173 H   0  0  0  0  0  0  0  0  0  0  0  0
    0.4409   -2.5272    0.2068 H   0  0  0  0  0  0  0  0  0  0  0  0
    2.7751   -1.8533   -0.0083 H   0  0  0  0  0  0  0  0  0  0  0  0
    3.7996    2.2925   -0.1595 H   0  0  0  0  0  0  0  0  0  0  0  0
    1.4118    2.9050    0.0541 H   0  0  0  0  0  0  0  0  0  0  0  0
   -0.9387    2.2152    0.2807 H   0  0  0  0  0  0  0  0  0  0  0  0
    5.0379   -1.8564    0.6844 H   0  0  0  0  0  0  0  0  0  0  0  0
    6.3556   -1.2317   -0.3418 H   0  0  0  0  0  0  0  0  0  0  0  0
    4.8773   -1.8833   -1.0967 H   0  0  0  0  0  0  0  0  0  0  0  0
   -4.2657    0.2249   -2.4447 H   0  0  0  0  0  0  0  0  0  0  0  0
  1  2  1  0  0  0  0
  2  3  1  0  0  0  0
  2  4  1  0  0  0  0
  4  5  4  0  0  0  0
  5  6  2  0  0  0  0
  6  7  4  0  0  0  0
  7  8  4  0  0  0  0
  8  9  4  0  0  0  0
  9 10  4  0  0  0  0
 10 11  2  0  0  0  0
  7 12  4  0  0  0  0
 11 12  4  0  0  0  0
  4 13  2  0  0  0  0
 12 13  4  0  0  0  0
  9 14  1  0  0  0  0
 14 15  1  0  0  0  0
  2 16  1  0  0  0  0
 16 17  2  0  0  0  0
 16 18  1  0  0  0  0
  1 19  1  0  0  0  0
  1 20  1  0  0  0  0
  1 21  1  0  0  0  0
  5 22  1  0  0  0  0
  6 23  1  0  0  0  0
  8 24  1  0  0  0  0
 10 25  1  0  0  0  0
 11 26  1  0  0  0  0
 13 27  1  0  0  0  0
 15 28  1  0  0  0  0
 15 29  1  0  0  0  0
 15 30  1  0  0  0  0
 18 31  1  0  0  0  0
M  END
