 xtb: 6.7.1 (edcfbbe)
          04112515593D

 20 19  0     0  0            999 V2000
   -3.2947    0.0114    0.9175 C   0  0  0  0  0  0  0  0  0  0  0  0
   -2.6694   -0.5740   -0.3438 C   0  0  0  0  0  0  0  0  0  0  0  0
   -1.1489   -0.7085   -0.2544 C   0  0  0  0  0  0  0  0  0  0  0  0
   -0.4471    0.6481   -0.1962 C   0  0  0  0  0  0  0  0  0  0  0  0
    1.0548    0.5548   -0.2140 C   0  0  0  0  0  0  0  0  0  0  0  0
    1.7877    1.4301   -0.6314 O   0  0  0  0  0  0  0  0  0  0  0  0
    1.5102   -0.5822    0.2961 O   0  0  0  0  0  0  0  0  0  0  0  0
    2.9273   -0.7614    0.3475 C   0  0  0  0  0  0  0  0  0  0  0  0
   -3.0037   -0.5687    1.7901 H   0  0  0  0  0  0  0  0  0  0  0  0
   -2.9855    1.0422    1.0673 H   0  0  0  0  0  0  0  0  0  0  0  0
   -4.3790   -0.0063    0.8406 H   0  0  0  0  0  0  0  0  0  0  0  0
   -3.0901   -1.5661   -0.5180 H   0  0  0  0  0  0  0  0  0  0  0  0
   -2.9276    0.0501   -1.2016 H   0  0  0  0  0  0  0  0  0  0  0  0
   -0.7891   -1.2536   -1.1292 H   0  0  0  0  0  0  0  0  0  0  0  0
   -0.8845   -1.2894    0.6298 H   0  0  0  0  0  0  0  0  0  0  0  0
   -0.7123    1.1678    0.7275 H   0  0  0  0  0  0  0  0  0  0  0  0
   -0.7484    1.2849   -1.0297 H   0  0  0  0  0  0  0  0  0  0  0  0
    3.3493   -0.6897   -0.6556 H   0  0  0  0  0  0  0  0  0  0  0  0
    3.0815   -1.7503    0.7672 H   0  0  0  0  0  0  0  0  0  0  0  0
    3.3784    0.0070    0.9764 H   0  0  0  0  0  0  0  0  0  0  0  0
  1  2  1  0  0  0  0
  2  3  1  0  0  0  0
  3  4  1  0  0  0  0
  4  5  1  0  0  0  0
  5  6  2  0  0  0  0
  5  7  1  0  0  0  0
  7  8  1  0  0  0  0
  1  9  1  0  0  0  0
  1 10  1  0  0  0  0
  1 11  1  0  0  0  0
  2 12  1  0  0  0  0
  2 13  1  0  0  0  0
  3 14  1  0  0  0  0
  3 15  1  0  0  0  0
  4 16  1  0  0  0  0
  4 17  1  0  0  0  0
  8 18  1  0  0  0  0
  8 19  1  0  0  0  0
  8 20  1  0  0  0  0
M  END
