 xtb: 6.7.1 (edcfbbe)
          04112513313D

 31 32  0     0  0            999 V2000
   -3.8871    0.1988   -1.9576 C   0  0  0  0  0  0  0  0  0  0  0  0
   -3.3122   -0.3505   -0.6554 C   0  0  0  0  0  0  0  0  0  0  0  0
   -3.5750   -1.4034   -0.5300 H   0  0  0  0  0  0  0  0  0  0  0  0
   -1.8088   -0.2139   -0.5348 C   0  0  0  0  0  0  0  0  0  0  0  0
   -1.1112    0.8369   -1.1172 C   0  0  0  0  0  0  0  0  0  0  0  0
    0.2587    0.9410   -0.9696 C   0  0  0  0  0  0  0  0  0  0  0  0
    0.9876    0.0173   -0.2224 C   0  0  0  0  0  0  0  0  0  0  0  0
    0.2610   -1.0147    0.3623 C   0  0  0  0  0  0  0  0  0  0  0  0
   -1.1044   -1.1448    0.2192 C   0  0  0  0  0  0  0  0  0  0  0  0
    0.9096   -1.9704    1.0922 F   0  0  0  0  0  0  0  0  0  0  0  0
    2.4465    0.1410   -0.0760 C   0  0  0  0  0  0  0  0  0  0  0  0
    3.0602   -0.0107    1.1644 C   0  0  0  0  0  0  0  0  0  0  0  0
    4.4318    0.1181    1.2858 C   0  0  0  0  0  0  0  0  0  0  0  0
    5.2078    0.3946    0.1727 C   0  0  0  0  0  0  0  0  0  0  0  0
    4.6051    0.5462   -1.0654 C   0  0  0  0  0  0  0  0  0  0  0  0
    3.2338    0.4243   -1.1900 C   0  0  0  0  0  0  0  0  0  0  0  0
   -3.8577    0.4030    0.5461 C   0  0  0  0  0  0  0  0  0  0  0  0
   -4.1197    1.5843    0.5614 O   0  0  0  0  0  0  0  0  0  0  0  0
   -3.9741   -0.3764    1.6074 O   0  0  0  0  0  0  0  0  0  0  0  0
   -4.9132   -0.1383   -2.0781 H   0  0  0  0  0  0  0  0  0  0  0  0
   -3.8901    1.2856   -1.9388 H   0  0  0  0  0  0  0  0  0  0  0  0
   -3.2999   -0.1485   -2.8022 H   0  0  0  0  0  0  0  0  0  0  0  0
   -1.6378    1.5829   -1.6883 H   0  0  0  0  0  0  0  0  0  0  0  0
    0.7839    1.7664   -1.4239 H   0  0  0  0  0  0  0  0  0  0  0  0
   -1.6063   -1.9715    0.6973 H   0  0  0  0  0  0  0  0  0  0  0  0
    2.4605   -0.2183    2.0382 H   0  0  0  0  0  0  0  0  0  0  0  0
    4.8954    0.0021    2.2539 H   0  0  0  0  0  0  0  0  0  0  0  0
    6.2785    0.4906    0.2698 H   0  0  0  0  0  0  0  0  0  0  0  0
    5.2059    0.7581   -1.9368 H   0  0  0  0  0  0  0  0  0  0  0  0
    2.7666    0.5277   -2.1578 H   0  0  0  0  0  0  0  0  0  0  0  0
   -4.2815    0.1018    2.4024 H   0  0  0  0  0  0  0  0  0  0  0  0
  1  2  1  0  0  0  0
  2  3  1  0  0  0  0
  2  4  1  0  0  0  0
  4  5  4  0  0  0  0
  5  6  4  0  0  0  0
  6  7  4  0  0  0  0
  7  8  4  0  0  0  0
  4  9  4  0  0  0  0
  8  9  4  0  0  0  0
  8 10  1  0  0  0  0
  7 11  1  0  0  0  0
 11 12  4  0  0  0  0
 12 13  4  0  0  0  0
 13 14  4  0  0  0  0
 14 15  4  0  0  0  0
 11 16  4  0  0  0  0
 15 16  4  0  0  0  0
  2 17  1  0  0  0  0
 17 18  2  0  0  0  0
 17 19  1  0  0  0  0
  1 20  1  0  0  0  0
  1 21  1  0  0  0  0
  1 22  1  0  0  0  0
  5 23  1  0  0  0  0
  6 24  1  0  0  0  0
  9 25  1  0  0  0  0
 12 26  1  0  0  0  0
 13 27  1  0  0  0  0
 14 28  1  0  0  0  0
 15 29  1  0  0  0  0
 16 30  1  0  0  0  0
 19 31  1  0  0  0  0
M  END
