 xtb: 6.7.1 (edcfbbe)
          04112516013D

 17 16  0     0  0            999 V2000
    1.5637   -1.6745    0.2715 C   0  0  0  0  0  0  0  0  0  0  0  0
    0.2756   -1.0765    0.3628 O   0  0  0  0  0  0  0  0  0  0  0  0
    0.0036   -0.1653   -0.6458 C   0  0  0  0  0  0  0  0  0  0  0  0
    0.8323    0.9568   -0.5889 O   0  0  0  0  0  0  0  0  0  0  0  0
    0.6821    1.7883    0.5643 C   0  0  0  0  0  0  0  0  0  0  0  0
   -1.3420    0.1618   -0.6471 O   0  0  0  0  0  0  0  0  0  0  0  0
   -2.0941   -0.0629    0.5515 C   0  0  0  0  0  0  0  0  0  0  0  0
    1.6607   -2.2191   -0.6712 H   0  0  0  0  0  0  0  0  0  0  0  0
    1.6228   -2.3559    1.1150 H   0  0  0  0  0  0  0  0  0  0  0  0
    2.3465   -0.9157    0.3344 H   0  0  0  0  0  0  0  0  0  0  0  0
    0.2347   -0.5905   -1.6422 H   0  0  0  0  0  0  0  0  0  0  0  0
    0.7839    1.1981    1.4781 H   0  0  0  0  0  0  0  0  0  0  0  0
   -0.2848    2.2943    0.5434 H   0  0  0  0  0  0  0  0  0  0  0  0
    1.4862    2.5152    0.4934 H   0  0  0  0  0  0  0  0  0  0  0  0
   -3.0601    0.3904    0.3468 H   0  0  0  0  0  0  0  0  0  0  0  0
   -1.6277    0.4057    1.4173 H   0  0  0  0  0  0  0  0  0  0  0  0
   -2.2040   -1.1330    0.7322 H   0  0  0  0  0  0  0  0  0  0  0  0
  1  2  1  0  0  0  0
  2  3  1  0  0  0  0
  3  4  1  0  0  0  0
  4  5  1  0  0  0  0
  3  6  1  0  0  0  0
  6  7  1  0  0  0  0
  1  8  1  0  0  0  0
  1  9  1  0  0  0  0
  1 10  1  0  0  0  0
  3 11  1  0  0  0  0
  5 12  1  0  0  0  0
  5 13  1  0  0  0  0
  5 14  1  0  0  0  0
  7 15  1  0  0  0  0
  7 16  1  0  0  0  0
  7 17  1  0  0  0  0
M  END
