17
 xtb: 6.7.1 (edcfbbe)
C            2.46403165296199       -0.56343884804445       -0.84781204851043
C            2.37450287072858        0.15128879501853        0.49832891136666
C            0.94937680375806        0.32014515988711        1.03504308273797
C            0.02964420152739        1.16667238029633        0.14030528843230
C           -0.82225488076887        0.39434708723141       -0.84224299938767
Cl          -2.11552339019134       -0.60603154779169        0.03193841493166
H            1.99529425232694        0.01877095875978       -1.64787376492876
H            1.97067910309971       -1.54147832424964       -0.80817870330252
H            3.50839741721467       -0.72679787327840       -1.13342403254664
H            2.95983838601083       -0.40576794916769        1.24027360779166
H            2.84169802316070        1.14155566918997        0.41514230174891
H            1.00903398506434        0.78845577720743        2.02359916094555
H            0.49925647419136       -0.66850644420146        1.19260007205894
H            0.63622276592022        1.85795111835097       -0.46311403625684
H           -0.63025906991617        1.79453960287541        0.74783527538812
H           -1.37941617446437        1.05726576326632       -1.50580349242527
H           -0.25869452059897       -0.33026464959345       -1.42987674503211
