 xtb: 6.7.1 (edcfbbe)
          04112515543D

 17 16  0     0  0            999 V2000
    2.1515   -1.0127   -0.4811 C   0  0  0  0  0  0  0  0  0  0  0  0
    2.1078    0.4396   -0.0148 C   0  0  0  0  0  0  0  0  0  0  0  0
    0.9726    0.7153    0.9832 C   0  0  0  0  0  0  0  0  0  0  0  0
   -0.2342    1.4309    0.3718 C   0  0  0  0  0  0  0  0  0  0  0  0
   -0.9563    0.6403   -0.7040 C   0  0  0  0  0  0  0  0  0  0  0  0
   -1.6715   -0.8729   -0.0377 Cl  0  0  0  0  0  0  0  0  0  0  0  0
    2.3630   -1.6717    0.3586 H   0  0  0  0  0  0  0  0  0  0  0  0
    2.9320   -1.1498   -1.2264 H   0  0  0  0  0  0  0  0  0  0  0  0
    1.2040   -1.3197   -0.9159 H   0  0  0  0  0  0  0  0  0  0  0  0
    3.0655    0.6738    0.4539 H   0  0  0  0  0  0  0  0  0  0  0  0
    2.0028    1.0978   -0.8792 H   0  0  0  0  0  0  0  0  0  0  0  0
    1.3453    1.3427    1.7944 H   0  0  0  0  0  0  0  0  0  0  0  0
    0.6420   -0.2258    1.4259 H   0  0  0  0  0  0  0  0  0  0  0  0
    0.0949    2.3673   -0.0840 H   0  0  0  0  0  0  0  0  0  0  0  0
   -0.9405    1.6739    1.1678 H   0  0  0  0  0  0  0  0  0  0  0  0
   -1.7911    1.2062   -1.1134 H   0  0  0  0  0  0  0  0  0  0  0  0
   -0.2860    0.3340   -1.5036 H   0  0  0  0  0  0  0  0  0  0  0  0
  1  2  1  0  0  0  0
  2  3  1  0  0  0  0
  3  4  1  0  0  0  0
  4  5  1  0  0  0  0
  5  6  1  0  0  0  0
  1  7  1  0  0  0  0
  1  8  1  0  0  0  0
  1  9  1  0  0  0  0
  2 10  1  0  0  0  0
  2 11  1  0  0  0  0
  3 12  1  0  0  0  0
  3 13  1  0  0  0  0
  4 14  1  0  0  0  0
  4 15  1  0  0  0  0
  5 16  1  0  0  0  0
  5 17  1  0  0  0  0
M  END
