17
 xtb: 6.7.1 (edcfbbe)
C            2.69250509098154       -1.04564028727783       -0.33684957275545
C            2.37643677250735        0.19980760234284        0.49154988726684
C            1.42355819554738        1.19057835092458       -0.19953729280948
C           -0.06433418855651        1.02248121411783        0.14699616964190
C           -0.60522350937019       -0.33289196528891       -0.24871792319814
Cl          -2.42249728384879       -0.42476729330812        0.07936398483887
H            3.36527370720628       -1.71861928405252        0.20535058616710
H            3.18449514288322       -0.76696440669712       -1.27536393129024
H            1.79309884488727       -1.61396530977044       -0.59375455504594
H            1.95414248011870       -0.09254272542473        1.46225618037127
H            3.32088103932915        0.71020937318170        0.71289302045008
H            1.55512654795383        1.12668050513573       -1.28788586378614
H            1.69346896253955        2.21415226474805        0.08302557789186
H           -0.63782416464870        1.80117066727652       -0.36794544839772
H           -0.20482160147962        1.16837185565076        1.22439987640605
H           -0.49021997861901       -0.53255941618264       -1.31617556799254
H           -0.17487458910097       -1.14919079818375        0.33214890676220
