 xtb: 6.7.1 (edcfbbe)
          04112515533D

 20 19  0     0  0            999 V2000
   -3.6620   -0.4189    0.3870 C   0  0  0  0  0  0  0  0  0  0  0  0
   -2.3731    0.2137   -0.1214 C   0  0  0  0  0  0  0  0  0  0  0  0
   -1.1516   -0.6064    0.2839 C   0  0  0  0  0  0  0  0  0  0  0  0
    0.1313   -0.0243   -0.2482 C   0  0  0  0  0  0  0  0  0  0  0  0
    0.2131    0.9228   -1.0007 O   0  0  0  0  0  0  0  0  0  0  0  0
    1.1859   -0.6983    0.2030 O   0  0  0  0  0  0  0  0  0  0  0  0
    2.4963   -0.2714   -0.2067 C   0  0  0  0  0  0  0  0  0  0  0  0
    3.0235    0.8331    0.6964 C   0  0  0  0  0  0  0  0  0  0  0  0
   -3.7845   -1.4177   -0.0243 H   0  0  0  0  0  0  0  0  0  0  0  0
   -3.6488   -0.4915    1.4716 H   0  0  0  0  0  0  0  0  0  0  0  0
   -4.5179    0.1818    0.0925 H   0  0  0  0  0  0  0  0  0  0  0  0
   -2.2716    1.2253    0.2759 H   0  0  0  0  0  0  0  0  0  0  0  0
   -2.3997    0.2963   -1.2095 H   0  0  0  0  0  0  0  0  0  0  0  0
   -1.2312   -1.6269   -0.0974 H   0  0  0  0  0  0  0  0  0  0  0  0
   -1.0664   -0.6730    1.3698 H   0  0  0  0  0  0  0  0  0  0  0  0
    3.1106   -1.1694   -0.1363 H   0  0  0  0  0  0  0  0  0  0  0  0
    2.4424    0.0730   -1.2440 H   0  0  0  0  0  0  0  0  0  0  0  0
    3.0198    0.5036    1.7319 H   0  0  0  0  0  0  0  0  0  0  0  0
    4.0376    1.0839    0.4030 H   0  0  0  0  0  0  0  0  0  0  0  0
    2.3997    1.7193    0.6035 H   0  0  0  0  0  0  0  0  0  0  0  0
  1  2  1  0  0  0  0
  2  3  1  0  0  0  0
  3  4  1  0  0  0  0
  4  5  2  0  0  0  0
  4  6  1  0  0  0  0
  6  7  1  0  0  0  0
  7  8  1  0  0  0  0
  1  9  1  0  0  0  0
  1 10  1  0  0  0  0
  1 11  1  0  0  0  0
  2 12  1  0  0  0  0
  2 13  1  0  0  0  0
  3 14  1  0  0  0  0
  3 15  1  0  0  0  0
  7 16  1  0  0  0  0
  7 17  1  0  0  0  0
  8 18  1  0  0  0  0
  8 19  1  0  0  0  0
  8 20  1  0  0  0  0
M  END
