 xtb: 6.7.1 (edcfbbe)
          04112512433D

 16 15  0     0  0            999 V2000
    2.3937   -0.3188   -0.1773 C   0  0  0  0  0  0  0  0  0  0  0  0
    0.9945    0.2366   -0.4127 C   0  0  0  0  0  0  0  0  0  0  0  0
    0.0622   -0.0559    0.7598 C   0  0  0  0  0  0  0  0  0  0  0  0
   -1.3583    0.4449    0.5035 C   0  0  0  0  0  0  0  0  0  0  0  0
   -1.9499   -0.2421   -0.6377 N   0  0  0  0  0  0  0  0  0  0  0  0
    3.0397   -0.0953   -1.0225 H   0  0  0  0  0  0  0  0  0  0  0  0
    2.8328    0.1191    0.7168 H   0  0  0  0  0  0  0  0  0  0  0  0
    2.3592   -1.3982   -0.0474 H   0  0  0  0  0  0  0  0  0  0  0  0
    1.0509    1.3168   -0.5622 H   0  0  0  0  0  0  0  0  0  0  0  0
    0.5669   -0.2011   -1.3150 H   0  0  0  0  0  0  0  0  0  0  0  0
    0.0328   -1.1339    0.9375 H   0  0  0  0  0  0  0  0  0  0  0  0
    0.4454    0.4218    1.6640 H   0  0  0  0  0  0  0  0  0  0  0  0
   -1.3299    1.5121    0.2646 H   0  0  0  0  0  0  0  0  0  0  0  0
   -1.9497    0.3235    1.4287 H   0  0  0  0  0  0  0  0  0  0  0  0
   -2.8944    0.0921   -0.7890 H   0  0  0  0  0  0  0  0  0  0  0  0
   -2.0030   -1.2368   -0.4432 H   0  0  0  0  0  0  0  0  0  0  0  0
  1  2  1  0  0  0  0
  2  3  1  0  0  0  0
  3  4  1  0  0  0  0
  4  5  1  0  0  0  0
  1  6  1  0  0  0  0
  1  7  1  0  0  0  0
  1  8  1  0  0  0  0
  2  9  1  0  0  0  0
  2 10  1  0  0  0  0
  3 11  1  0  0  0  0
  3 12  1  0  0  0  0
  4 13  1  0  0  0  0
  4 14  1  0  0  0  0
  5 15  1  0  0  0  0
  5 16  1  0  0  0  0
M  END
