20
 xtb: 6.7.1 (edcfbbe)
C           -3.41206508897927       -1.03570946034396        0.21466845545079
C           -2.00531321646648       -0.72894256621036       -0.28566722134185
C           -1.33817227508168        0.36967754681038        0.56284814033249
C            0.00208339123437        0.73295874839629       -0.00313882908730
O            0.21702885682224        1.68790584643602       -0.73478708471547
O            0.95432400430876       -0.15120324310006        0.34645892920437
C            2.28604516695361        0.06958378745291       -0.21947007500899
C            3.16915723960774       -1.05023939956661        0.26781088197555
H           -4.05130337108848       -0.14830146957651        0.15618509654018
H           -3.87520606867948       -1.82528260085435       -0.38515057351318
H           -3.39355575879483       -1.37000128476819        1.25755249720089
H           -2.04304060507626       -0.40156995968788       -1.33137786426442
H           -1.38788598181563       -1.63330346850283       -0.25191578170715
H           -1.22108523760377        0.01840589583970        1.59295563821045
H           -1.95868726996049        1.26972259068689        0.56154564367585
H            2.19917524658108        0.07847023901669       -1.31006426398156
H            2.64271147293460        1.04814267155718        0.11583730783036
H            3.22873528051920       -1.05878348867801        1.35991147455341
H            2.80021176246927       -2.02066804785628       -0.07641281104003
H            4.17826829645572       -0.90611538601503       -0.12944307821050
