 xtb: 6.7.1 (edcfbbe)
          04112515533D

 20 19  0     0  0            999 V2000
   -2.6226   -1.2406   -0.3660 C   0  0  0  0  0  0  0  0  0  0  0  0
   -2.5752    0.2023    0.1222 C   0  0  0  0  0  0  0  0  0  0  0  0
   -1.2672    0.5058    0.8554 C   0  0  0  0  0  0  0  0  0  0  0  0
   -0.0892    0.4984   -0.0848 C   0  0  0  0  0  0  0  0  0  0  0  0
   -0.0816    0.9726   -1.2024 O   0  0  0  0  0  0  0  0  0  0  0  0
    0.9703   -0.0815    0.4628 O   0  0  0  0  0  0  0  0  0  0  0  0
    2.1844   -0.1281   -0.3061 C   0  0  0  0  0  0  0  0  0  0  0  0
    3.2924   -0.6496    0.5879 C   0  0  0  0  0  0  0  0  0  0  0  0
   -1.8140   -1.4275   -1.0705 H   0  0  0  0  0  0  0  0  0  0  0  0
   -2.5209   -1.9308    0.4681 H   0  0  0  0  0  0  0  0  0  0  0  0
   -3.5655   -1.4402   -0.8681 H   0  0  0  0  0  0  0  0  0  0  0  0
   -3.4109    0.3885    0.7971 H   0  0  0  0  0  0  0  0  0  0  0  0
   -2.6617    0.8790   -0.7299 H   0  0  0  0  0  0  0  0  0  0  0  0
   -1.0794   -0.2145    1.6510 H   0  0  0  0  0  0  0  0  0  0  0  0
   -1.3160    1.5055    1.2926 H   0  0  0  0  0  0  0  0  0  0  0  0
    2.0192   -0.7812   -1.1693 H   0  0  0  0  0  0  0  0  0  0  0  0
    2.3980    0.8796   -0.6776 H   0  0  0  0  0  0  0  0  0  0  0  0
    3.0378   -1.6394    0.9548 H   0  0  0  0  0  0  0  0  0  0  0  0
    4.2159   -0.7033    0.0209 H   0  0  0  0  0  0  0  0  0  0  0  0
    3.4301    0.0139    1.4364 H   0  0  0  0  0  0  0  0  0  0  0  0
  1  2  1  0  0  0  0
  2  3  1  0  0  0  0
  3  4  1  0  0  0  0
  4  5  2  0  0  0  0
  4  6  1  0  0  0  0
  6  7  1  0  0  0  0
  7  8  1  0  0  0  0
  1  9  1  0  0  0  0
  1 10  1  0  0  0  0
  1 11  1  0  0  0  0
  2 12  1  0  0  0  0
  2 13  1  0  0  0  0
  3 14  1  0  0  0  0
  3 15  1  0  0  0  0
  7 16  1  0  0  0  0
  7 17  1  0  0  0  0
  8 18  1  0  0  0  0
  8 19  1  0  0  0  0
  8 20  1  0  0  0  0
M  END
