 xtb: 6.7.1 (edcfbbe)
          04112516443D

 20 19  0     0  0            999 V2000
   -2.1898   -1.3922    0.9395 C   0  0  0  0  0  0  0  0  0  0  0  0
   -2.1318   -0.5707   -0.3431 C   0  0  0  0  0  0  0  0  0  0  0  0
   -1.5190    0.8205   -0.1392 C   0  0  0  0  0  0  0  0  0  0  0  0
   -0.0114    0.8520   -0.1519 C   0  0  0  0  0  0  0  0  0  0  0  0
    0.6330    1.7343   -0.6854 O   0  0  0  0  0  0  0  0  0  0  0  0
    0.5421   -0.1623    0.4956 O   0  0  0  0  0  0  0  0  0  0  0  0
    1.9758   -0.2463    0.5371 C   0  0  0  0  0  0  0  0  0  0  0  0
    2.5168   -0.9794   -0.6808 C   0  0  0  0  0  0  0  0  0  0  0  0
   -1.1936   -1.5419    1.3440 H   0  0  0  0  0  0  0  0  0  0  0  0
   -2.7957   -0.8851    1.6866 H   0  0  0  0  0  0  0  0  0  0  0  0
   -2.6337   -2.3640    0.7395 H   0  0  0  0  0  0  0  0  0  0  0  0
   -3.1456   -0.4386   -0.7242 H   0  0  0  0  0  0  0  0  0  0  0  0
   -1.5604   -1.1099   -1.1004 H   0  0  0  0  0  0  0  0  0  0  0  0
   -1.8431    1.2233    0.8233 H   0  0  0  0  0  0  0  0  0  0  0  0
   -1.8485    1.5089   -0.9185 H   0  0  0  0  0  0  0  0  0  0  0  0
    2.3840    0.7677    0.5890 H   0  0  0  0  0  0  0  0  0  0  0  0
    2.1939   -0.7901    1.4568 H   0  0  0  0  0  0  0  0  0  0  0  0
    3.5929   -1.0840   -0.5892 H   0  0  0  0  0  0  0  0  0  0  0  0
    2.0655   -1.9651   -0.7564 H   0  0  0  0  0  0  0  0  0  0  0  0
    2.2927   -0.4160   -1.5839 H   0  0  0  0  0  0  0  0  0  0  0  0
  1  2  1  0  0  0  0
  2  3  1  0  0  0  0
  3  4  1  0  0  0  0
  4  5  2  0  0  0  0
  4  6  1  0  0  0  0
  6  7  1  0  0  0  0
  7  8  1  0  0  0  0
  1  9  1  0  0  0  0
  1 10  1  0  0  0  0
  1 11  1  0  0  0  0
  2 12  1  0  0  0  0
  2 13  1  0  0  0  0
  3 14  1  0  0  0  0
  3 15  1  0  0  0  0
  7 16  1  0  0  0  0
  7 17  1  0  0  0  0
  8 18  1  0  0  0  0
  8 19  1  0  0  0  0
  8 20  1  0  0  0  0
M  END
