 xtb: 6.7.1 (edcfbbe)
          04112515593D

 20 19  0     0  0            999 V2000
   -3.8818    0.3801    0.0771 C   0  0  0  0  0  0  0  0  0  0  0  0
   -2.6838   -0.5469    0.2440 C   0  0  0  0  0  0  0  0  0  0  0  0
   -1.3707    0.1793   -0.0363 C   0  0  0  0  0  0  0  0  0  0  0  0
   -0.1621   -0.7409    0.1517 C   0  0  0  0  0  0  0  0  0  0  0  0
    1.1156   -0.0502   -0.2463 C   0  0  0  0  0  0  0  0  0  0  0  0
    1.2699    0.5997   -1.2590 O   0  0  0  0  0  0  0  0  0  0  0  0
    2.0733   -0.2476    0.6525 O   0  0  0  0  0  0  0  0  0  0  0  0
    3.3643    0.3266    0.4231 C   0  0  0  0  0  0  0  0  0  0  0  0
   -3.9241    0.7678   -0.9379 H   0  0  0  0  0  0  0  0  0  0  0  0
   -4.8070   -0.1520    0.2819 H   0  0  0  0  0  0  0  0  0  0  0  0
   -3.8100    1.2223    0.7614 H   0  0  0  0  0  0  0  0  0  0  0  0
   -2.6676   -0.9393    1.2626 H   0  0  0  0  0  0  0  0  0  0  0  0
   -2.7815   -1.3930   -0.4388 H   0  0  0  0  0  0  0  0  0  0  0  0
   -1.2785    1.0366    0.6340 H   0  0  0  0  0  0  0  0  0  0  0  0
   -1.3654    0.5589   -1.0601 H   0  0  0  0  0  0  0  0  0  0  0  0
   -0.2738   -1.6153   -0.4936 H   0  0  0  0  0  0  0  0  0  0  0  0
   -0.0722   -1.0760    1.1842 H   0  0  0  0  0  0  0  0  0  0  0  0
    3.5025    0.5160   -0.6419 H   0  0  0  0  0  0  0  0  0  0  0  0
    4.0916   -0.3915    0.7919 H   0  0  0  0  0  0  0  0  0  0  0  0
    3.4372    1.2627    0.9761 H   0  0  0  0  0  0  0  0  0  0  0  0
  1  2  1  0  0  0  0
  2  3  1  0  0  0  0
  3  4  1  0  0  0  0
  4  5  1  0  0  0  0
  5  6  2  0  0  0  0
  5  7  1  0  0  0  0
  7  8  1  0  0  0  0
  1  9  1  0  0  0  0
  1 10  1  0  0  0  0
  1 11  1  0  0  0  0
  2 12  1  0  0  0  0
  2 13  1  0  0  0  0
  3 14  1  0  0  0  0
  3 15  1  0  0  0  0
  4 16  1  0  0  0  0
  4 17  1  0  0  0  0
  8 18  1  0  0  0  0
  8 19  1  0  0  0  0
  8 20  1  0  0  0  0
M  END
