 xtb: 6.7.1 (edcfbbe)
          04112515533D

 20 19  0     0  0            999 V2000
   -2.1760   -1.4727   -0.2335 C   0  0  0  0  0  0  0  0  0  0  0  0
   -2.4865   -0.0005    0.0084 C   0  0  0  0  0  0  0  0  0  0  0  0
   -1.3569    0.6972    0.7755 C   0  0  0  0  0  0  0  0  0  0  0  0
   -0.1009    0.7349   -0.0566 C   0  0  0  0  0  0  0  0  0  0  0  0
   -0.0087    1.2606   -1.1476 O   0  0  0  0  0  0  0  0  0  0  0  0
    0.9017    0.1099    0.5428 O   0  0  0  0  0  0  0  0  0  0  0  0
    2.1717    0.0298   -0.1267 C   0  0  0  0  0  0  0  0  0  0  0  0
    2.8647   -1.2501    0.3030 C   0  0  0  0  0  0  0  0  0  0  0  0
   -1.2892   -1.5770   -0.8561 H   0  0  0  0  0  0  0  0  0  0  0  0
   -1.9970   -1.9853    0.7086 H   0  0  0  0  0  0  0  0  0  0  0  0
   -3.0068   -1.9566   -0.7398 H   0  0  0  0  0  0  0  0  0  0  0  0
   -3.4080    0.0906    0.5837 H   0  0  0  0  0  0  0  0  0  0  0  0
   -2.6254    0.5085   -0.9474 H   0  0  0  0  0  0  0  0  0  0  0  0
   -1.1421    0.1782    1.7086 H   0  0  0  0  0  0  0  0  0  0  0  0
   -1.6462    1.7277    0.9860 H   0  0  0  0  0  0  0  0  0  0  0  0
    1.9972    0.0597   -1.2071 H   0  0  0  0  0  0  0  0  0  0  0  0
    2.7540    0.9114    0.1583 H   0  0  0  0  0  0  0  0  0  0  0  0
    2.2745   -2.1144    0.0117 H   0  0  0  0  0  0  0  0  0  0  0  0
    3.8388   -1.3072   -0.1717 H   0  0  0  0  0  0  0  0  0  0  0  0
    2.9892   -1.2586    1.3817 H   0  0  0  0  0  0  0  0  0  0  0  0
  1  2  1  0  0  0  0
  2  3  1  0  0  0  0
  3  4  1  0  0  0  0
  4  5  2  0  0  0  0
  4  6  1  0  0  0  0
  6  7  1  0  0  0  0
  7  8  1  0  0  0  0
  1  9  1  0  0  0  0
  1 10  1  0  0  0  0
  1 11  1  0  0  0  0
  2 12  1  0  0  0  0
  2 13  1  0  0  0  0
  3 14  1  0  0  0  0
  3 15  1  0  0  0  0
  7 16  1  0  0  0  0
  7 17  1  0  0  0  0
  8 18  1  0  0  0  0
  8 19  1  0  0  0  0
  8 20  1  0  0  0  0
M  END
