22
CONF5
C 2.3065222259 0.9199756467 -0.7215094055
C 1.1689599757 0.4497020573 0.1791166006
C 1.6299869847 -0.7289423808 1.0417080116
N -0.0045656583 0.1604207415 -0.6742592788
C -1.1745862621 -0.4187801638 0.0196054357
C -2.2292530593 -0.7654085353 -1.0254885696
C -1.7349039720 0.5503085473 1.0536313437
H 2.0097963894 1.7881619306 -1.3182526811
H 3.1814264664 1.1963615096 -0.1251797666
H 2.6073559345 0.1183723193 -1.4082470005
H 0.8964064993 1.2793074444 0.8443987789
H 1.8621596416 -1.5959261117 0.4097912137
H 0.8715843897 -1.0300230681 1.7708982908
H 2.5349366998 -0.4617647154 1.5982045802
H 0.3016190475 -0.5358715821 -1.3529546428
H -0.9083538996 -1.3539305194 0.5422389339
H -1.8219328954 -1.4426734933 -1.7849712268
H -3.0842748554 -1.2620497068 -0.5564060732
H -2.5907489303 0.1375980295 -1.5299858051
H -2.6382480031 0.1292572148 1.5062026891
H -2.0006650158 1.5056743820 0.5855190685
H -1.0233627016 0.7495263617 1.8606847562
22
CONF3
C 2.1883026721 1.1221566106 -0.5494183695
C 1.1956510212 0.2797484977 0.2419887557
C 1.8561868570 -1.0031639343 0.7383266730
N 0.0341055509 -0.0343189115 -0.6191436683
C -1.2052152197 -0.3483169338 0.1288852350
C -2.2036689949 -1.0195240386 -0.8083153686
C -1.8395595117 0.8830414465 0.7813926500
H 1.7341192497 2.0637930085 -0.8786572964
H 3.0610313229 1.3644637801 0.0647999224
H 2.5368744640 0.5794083459 -1.4358908682
H 0.8885568641 0.8657989346 1.1254028915
H 2.2665942431 -1.5735719413 -0.1029170367
H 1.1487967697 -1.6444084877 1.2735451633
H 2.6754076950 -0.7670851431 1.4257773198
H -0.1680104444 0.7994811605 -1.1678455560
H -0.9366136750 -1.0640231520 0.9155841706
H -3.1325408720 -1.2581963769 -0.2799088567
H -2.4532548198 -0.3506682569 -1.6411344605
H -1.7965114853 -1.9458493288 -1.2250054795
H -1.1413306220 1.3990446752 1.4475098810
H -2.7184451714 0.6041240453 1.3729843502
H -2.1630734662 1.5911276007 0.0082259384
22
CONF2
C 2.2279751265 1.1315532799 -0.5363959920
C 1.1953126523 0.3146985620 0.2331569412
C 1.8121210860 -1.0024183947 0.7115921384
N -0.0055410729 0.1147507952 -0.6110073787
C -1.2054220363 -0.3003757907 0.1487644014
C -2.1511320735 -1.0524494921 -0.7786224171
C -1.8982174753 0.9176691799 0.7532424885
H 1.8317431138 2.1134261475 -0.8127233908
H 3.1312962512 1.2805732099 0.0643472783
H 2.5184624820 0.6083545677 -1.4555851983
H 0.8813713855 0.8940247847 1.1102864296
H 2.1874952429 -1.5737604366 -0.1467166699
H 1.0860515281 -1.6235014637 1.2454259532
H 2.6541067619 -0.8185450066 1.3879190198
H 0.2215851962 -0.6414116670 -1.2539628888
H -0.9346318850 -0.9815926823 0.9740200402
H -3.0511963824 -1.3617133501 -0.2382778706
H -2.4602670903 -0.4171495554 -1.6170182711
H -1.6743348053 -1.9516465126 -1.1853730170
H -2.2882692372 1.5680079369 -0.0382200452
H -1.2132144220 1.5063644638 1.3716100222
H -2.7353142538 0.6067031489 1.3873774869
22
CONF9
C 2.2733031105 1.0679386932 0.2233727998
C 1.2128622545 -0.0281358835 0.2193480414
C 1.7460860282 -1.2760216349 -0.4826473083
N -0.0238285541 0.4761632598 -0.4324950049
C -1.2612768071 0.1841130148 0.3236899485
C -1.5838806196 -1.3053691149 0.3283351898
C -2.4084563053 0.9817100345 -0.2840940626
H 1.9356798779 1.9427023343 0.7902349381
H 3.2025581479 0.7067165495 0.6749640960
H 2.4998175804 1.3867941178 -0.8013884056
H 0.9922181490 -0.2884975216 1.2681288926
H 2.0646106503 -1.0318869655 -1.5025952353
H 0.9882165400 -2.0615247438 -0.5444541318
H 2.6102382679 -1.6788875029 0.0572643788
H 0.0479376421 1.4896375374 -0.4552672128
H -1.1444875747 0.5029148436 1.3771571160
H -2.5241118906 -1.4777122937 0.8626784607
H -1.6967307210 -1.6822948808 -0.6949049618
H -0.8082709561 -1.8912079350 0.8300759181
H -3.3235481792 0.8384633518 0.2988605591
H -2.6048974456 0.6594968975 -1.3130443184
H -2.1808813950 2.0537627708 -0.2972229561
