33
 xtb: 6.7.1 (edcfbbe)
C           -4.54493875833182       -1.11076699909172       -0.45464977309627
C           -3.80810823758114       -2.28074312281693       -0.26538540732611
C           -2.44163856817802       -2.21731612761073       -0.02694616287344
C           -1.79078668511528       -0.98190857230370        0.02260990710067
C           -2.53447514281253        0.19413089186278       -0.16885697354632
C           -3.91016196086125        0.12155059261398       -0.40524495023886
C           -1.86940140735873        1.50772459908871       -0.12051414464284
O           -2.51567640893473        2.55124951294624       -0.25641329203454
C           -0.40073928628956        1.53754215431033        0.08921542553103
C            0.22000969034490        2.77584167560407        0.07001771890995
C            1.60317068859404        2.85946054944228        0.25270080988818
C            2.35960587467521        1.72980526499798        0.46060155214283
C            1.76176694049479        0.44306695434925        0.50684656178973
C            0.34267397527496        0.34400492716409        0.30062436835617
C           -0.32936831764859       -0.94213613049455        0.28284139098519
O            0.27247827588810       -2.02230444884816        0.47098114075452
N            2.51076699378999       -0.65134541064638        0.76524877425292
C            3.96599182011087       -0.68703725297549        0.77465947636340
C            4.58576096839104       -0.64989246619096       -0.61709964013251
O            4.19320272824475       -1.77479645473019       -1.41788115372278
H           -5.61235877774008       -1.16412550209213       -0.64067277288653
H           -4.30377413694298       -3.24513119366894       -0.30422632189319
H           -1.86946708828783       -3.12567232324429        0.12095740196893
H           -4.47098827441264        1.03792935595592       -0.55057332790959
H           -0.37085126968959        3.66880638116638       -0.09184720312487
H            2.09183265957534        3.82807550254743        0.22969720160425
H            3.42902134467159        1.82809178411635        0.59682006070299
H            2.01121176205518       -1.53160659839475        0.69156579524903
H            4.26026243300374       -1.61757922505964        1.27105164353792
H            4.37259259694688        0.13382633130076        1.37537937869745
H            5.67866655438271       -0.60683556265473       -0.51303142353506
H            4.25612009844911        0.23891732242915       -1.16380089964238
H            4.53421846626157       -2.56949663538388       -0.98611471230720
