 xtb: 6.7.1 (edcfbbe)
          04112517463D

 20 19  0     0  0            999 V2000
   -3.6930   -0.5823    0.3799 C   0  0  0  0  0  0  0  0  0  0  0  0
   -2.4639   -0.0781   -0.3652 C   0  0  0  0  0  0  0  0  0  0  0  0
   -1.1792   -0.4162    0.3859 C   0  0  0  0  0  0  0  0  0  0  0  0
    0.0491    0.0867   -0.3246 C   0  0  0  0  0  0  0  0  0  0  0  0
    0.0548    0.7497   -1.3409 O   0  0  0  0  0  0  0  0  0  0  0  0
    1.1587   -0.2847    0.3037 O   0  0  0  0  0  0  0  0  0  0  0  0
    2.4160    0.1284   -0.2592 C   0  0  0  0  0  0  0  0  0  0  0  0
    3.5279   -0.4415    0.5998 C   0  0  0  0  0  0  0  0  0  0  0  0
   -3.7545   -0.1279    1.3655 H   0  0  0  0  0  0  0  0  0  0  0  0
   -4.5956   -0.3331   -0.1709 H   0  0  0  0  0  0  0  0  0  0  0  0
   -3.6496   -1.6620    0.4995 H   0  0  0  0  0  0  0  0  0  0  0  0
   -2.5234    1.0037   -0.4982 H   0  0  0  0  0  0  0  0  0  0  0  0
   -2.4218   -0.5226   -1.3612 H   0  0  0  0  0  0  0  0  0  0  0  0
   -1.0738   -1.4950    0.5141 H   0  0  0  0  0  0  0  0  0  0  0  0
   -1.1882    0.0284    1.3833 H   0  0  0  0  0  0  0  0  0  0  0  0
    2.4694   -0.2361   -1.2904 H   0  0  0  0  0  0  0  0  0  0  0  0
    2.4405    1.2228   -0.2838 H   0  0  0  0  0  0  0  0  0  0  0  0
    3.4384   -0.0715    1.6168 H   0  0  0  0  0  0  0  0  0  0  0  0
    3.4672   -1.5255    0.6152 H   0  0  0  0  0  0  0  0  0  0  0  0
    4.4870   -0.1412    0.1913 H   0  0  0  0  0  0  0  0  0  0  0  0
  1  2  1  0  0  0  0
  2  3  1  0  0  0  0
  3  4  1  0  0  0  0
  4  5  2  0  0  0  0
  4  6  1  0  0  0  0
  6  7  1  0  0  0  0
  7  8  1  0  0  0  0
  1  9  1  0  0  0  0
  1 10  1  0  0  0  0
  1 11  1  0  0  0  0
  2 12  1  0  0  0  0
  2 13  1  0  0  0  0
  3 14  1  0  0  0  0
  3 15  1  0  0  0  0
  7 16  1  0  0  0  0
  7 17  1  0  0  0  0
  8 18  1  0  0  0  0
  8 19  1  0  0  0  0
  8 20  1  0  0  0  0
M  END
