20
 xtb: 6.7.1 (edcfbbe)
C           -2.30541901996062       -1.23113748083901        0.58422046549049
C           -2.53468288546587        0.09277979037613       -0.13771972076273
C           -1.33495662590416        0.50112294482018       -1.00674535902421
C           -0.10598461866564        0.67709392181242       -0.16036469988004
O           -0.00734265756897        1.48943250533782        0.74732891896318
O            0.87952567759861       -0.17499045950087       -0.49283008292947
C            2.10258279075419       -0.10045889316238        0.30869848330569
C            3.02686175505175       -1.18122529077268       -0.19030360560399
H           -3.18853482583758       -1.52205217879759        1.16105236802344
H           -2.08590810897223       -2.03406979863076       -0.12801047087587
H           -1.46262902512546       -1.16322289789548        1.28258200429440
H           -2.73987874191646        0.88806066772781        0.58746951545071
H           -3.41159358543996        0.01893066340736       -0.78927240088735
H           -1.53513842670313        1.46316021083584       -1.49137988360467
H           -1.15061717394984       -0.24671251271950       -1.78203267163142
H            2.53260788706801        0.89822218215477        0.18621643557908
H            1.83299973147104       -0.24451247086415        1.35911850465524
H            2.57268734180681       -2.16963689635739       -0.07471115018211
H            3.28234937067784       -1.02768696313588       -1.24268303073376
H            3.95113008839977       -1.15790397831996        0.39461811329526
