 xtb: 6.7.1 (edcfbbe)
          04112512303D

 11 10  0     0  0            999 V2000
   -0.0003    1.3101    0.0008 C   0  0  0  0  0  0  0  0  0  0  0  0
   -0.9301    0.4730   -0.8601 C   0  0  0  0  0  0  0  0  0  0  0  0
   -2.0864   -0.4627    0.1548 Cl  0  0  0  0  0  0  0  0  0  0  0  0
    0.9297    0.4718    0.8605 C   0  0  0  0  0  0  0  0  0  0  0  0
    2.0862   -0.4620   -0.1559 Cl  0  0  0  0  0  0  0  0  0  0  0  0
    0.5870    1.9467   -0.6623 H   0  0  0  0  0  0  0  0  0  0  0  0
   -0.5877    1.9456    0.6650 H   0  0  0  0  0  0  0  0  0  0  0  0
   -1.5371    1.0986   -1.5104 H   0  0  0  0  0  0  0  0  0  0  0  0
   -0.3759   -0.2587   -1.4455 H   0  0  0  0  0  0  0  0  0  0  0  0
    0.3756   -0.2608    1.4447 H   0  0  0  0  0  0  0  0  0  0  0  0
    1.5366    1.0965    1.5117 H   0  0  0  0  0  0  0  0  0  0  0  0
  1  2  1  0  0  0  0
  2  3  1  0  0  0  0
  1  4  1  0  0  0  0
  4  5  1  0  0  0  0
  1  6  1  0  0  0  0
  1  7  1  0  0  0  0
  2  8  1  0  0  0  0
  2  9  1  0  0  0  0
  4 10  1  0  0  0  0
  4 11  1  0  0  0  0
M  END
