 xtb: 6.7.1 (edcfbbe)
          04112515533D

 20 19  0     0  0            999 V2000
   -3.6582   -0.6190    0.2318 C   0  0  0  0  0  0  0  0  0  0  0  0
   -2.4049    0.1297   -0.2028 C   0  0  0  0  0  0  0  0  0  0  0  0
   -1.1471   -0.4862    0.4076 C   0  0  0  0  0  0  0  0  0  0  0  0
    0.1117    0.1565   -0.1129 C   0  0  0  0  0  0  0  0  0  0  0  0
    0.2276    0.6922   -1.1949 O   0  0  0  0  0  0  0  0  0  0  0  0
    1.1000    0.0603    0.7705 O   0  0  0  0  0  0  0  0  0  0  0  0
    2.3959    0.5704    0.4123 C   0  0  0  0  0  0  0  0  0  0  0  0
    3.2310   -0.4986   -0.2756 C   0  0  0  0  0  0  0  0  0  0  0  0
   -4.5412   -0.1575   -0.2013 H   0  0  0  0  0  0  0  0  0  0  0  0
   -3.6162   -1.6552   -0.0943 H   0  0  0  0  0  0  0  0  0  0  0  0
   -3.7555   -0.6012    1.3143 H   0  0  0  0  0  0  0  0  0  0  0  0
   -2.4752    1.1761    0.1003 H   0  0  0  0  0  0  0  0  0  0  0  0
   -2.3126    0.1106   -1.2903 H   0  0  0  0  0  0  0  0  0  0  0  0
   -1.0932   -1.5457    0.1435 H   0  0  0  0  0  0  0  0  0  0  0  0
   -1.1500   -0.4133    1.4951 H   0  0  0  0  0  0  0  0  0  0  0  0
    2.2607    1.4367   -0.2422 H   0  0  0  0  0  0  0  0  0  0  0  0
    2.8437    0.8759    1.3584 H   0  0  0  0  0  0  0  0  0  0  0  0
    2.7694   -0.7828   -1.2187 H   0  0  0  0  0  0  0  0  0  0  0  0
    4.2238   -0.1078   -0.4730 H   0  0  0  0  0  0  0  0  0  0  0  0
    3.3098   -1.3769    0.3592 H   0  0  0  0  0  0  0  0  0  0  0  0
  1  2  1  0  0  0  0
  2  3  1  0  0  0  0
  3  4  1  0  0  0  0
  4  5  2  0  0  0  0
  4  6  1  0  0  0  0
  6  7  1  0  0  0  0
  7  8  1  0  0  0  0
  1  9  1  0  0  0  0
  1 10  1  0  0  0  0
  1 11  1  0  0  0  0
  2 12  1  0  0  0  0
  2 13  1  0  0  0  0
  3 14  1  0  0  0  0
  3 15  1  0  0  0  0
  7 16  1  0  0  0  0
  7 17  1  0  0  0  0
  8 18  1  0  0  0  0
  8 19  1  0  0  0  0
  8 20  1  0  0  0  0
M  END
