 xtb: 6.7.1 (edcfbbe)
          04112514553D

 31 32  0     0  0            999 V2000
   -3.8214    0.5069    1.7859 C   0  0  0  0  0  0  0  0  0  0  0  0
   -3.3295    0.4268    0.3398 C   0  0  0  0  0  0  0  0  0  0  0  0
   -3.6258    1.3190   -0.2162 H   0  0  0  0  0  0  0  0  0  0  0  0
   -1.8252    0.2824    0.2752 C   0  0  0  0  0  0  0  0  0  0  0  0
   -1.1909   -0.8316    0.8136 C   0  0  0  0  0  0  0  0  0  0  0  0
    0.1835   -0.9529    0.7662 C   0  0  0  0  0  0  0  0  0  0  0  0
    0.9834    0.0320    0.1869 C   0  0  0  0  0  0  0  0  0  0  0  0
    0.3208    1.1302   -0.3503 C   0  0  0  0  0  0  0  0  0  0  0  0
   -1.0524    1.2677   -0.3223 C   0  0  0  0  0  0  0  0  0  0  0  0
    1.0360    2.1178   -0.9660 F   0  0  0  0  0  0  0  0  0  0  0  0
    2.4479   -0.1059    0.1491 C   0  0  0  0  0  0  0  0  0  0  0  0
    3.0228   -1.3241   -0.2066 C   0  0  0  0  0  0  0  0  0  0  0  0
    4.3974   -1.4674   -0.2379 C   0  0  0  0  0  0  0  0  0  0  0  0
    5.2163   -0.3996    0.0915 C   0  0  0  0  0  0  0  0  0  0  0  0
    4.6529    0.8135    0.4500 C   0  0  0  0  0  0  0  0  0  0  0  0
    3.2782    0.9624    0.4774 C   0  0  0  0  0  0  0  0  0  0  0  0
   -3.9176   -0.7769   -0.3712 C   0  0  0  0  0  0  0  0  0  0  0  0
   -4.1209   -1.8551    0.1399 O   0  0  0  0  0  0  0  0  0  0  0  0
   -4.1568   -0.5284   -1.6472 O   0  0  0  0  0  0  0  0  0  0  0  0
   -3.2901    1.2942    2.3124 H   0  0  0  0  0  0  0  0  0  0  0  0
   -4.8866    0.7209    1.8072 H   0  0  0  0  0  0  0  0  0  0  0  0
   -3.6504   -0.4386    2.2927 H   0  0  0  0  0  0  0  0  0  0  0  0
   -1.7825   -1.6147    1.2623 H   0  0  0  0  0  0  0  0  0  0  0  0
    0.6606   -1.8177    1.1998 H   0  0  0  0  0  0  0  0  0  0  0  0
   -1.5001    2.1421   -0.7672 H   0  0  0  0  0  0  0  0  0  0  0  0
    2.3863   -2.1529   -0.4783 H   0  0  0  0  0  0  0  0  0  0  0  0
    4.8314   -2.4143   -0.5213 H   0  0  0  0  0  0  0  0  0  0  0  0
    6.2894   -0.5122    0.0679 H   0  0  0  0  0  0  0  0  0  0  0  0
    5.2857    1.6487    0.7098 H   0  0  0  0  0  0  0  0  0  0  0  0
    2.8464    1.9089    0.7666 H   0  0  0  0  0  0  0  0  0  0  0  0
   -4.5024   -1.3048   -2.1302 H   0  0  0  0  0  0  0  0  0  0  0  0
  1  2  1  0  0  0  0
  2  3  1  0  0  0  0
  2  4  1  0  0  0  0
  4  5  4  0  0  0  0
  5  6  4  0  0  0  0
  6  7  4  0  0  0  0
  7  8  4  0  0  0  0
  4  9  4  0  0  0  0
  8  9  4  0  0  0  0
  8 10  1  0  0  0  0
  7 11  1  0  0  0  0
 11 12  4  0  0  0  0
 12 13  4  0  0  0  0
 13 14  4  0  0  0  0
 14 15  4  0  0  0  0
 11 16  4  0  0  0  0
 15 16  4  0  0  0  0
  2 17  1  0  0  0  0
 17 18  2  0  0  0  0
 17 19  1  0  0  0  0
  1 20  1  0  0  0  0
  1 21  1  0  0  0  0
  1 22  1  0  0  0  0
  5 23  1  0  0  0  0
  6 24  1  0  0  0  0
  9 25  1  0  0  0  0
 12 26  1  0  0  0  0
 13 27  1  0  0  0  0
 14 28  1  0  0  0  0
 15 29  1  0  0  0  0
 16 30  1  0  0  0  0
 19 31  1  0  0  0  0
M  END
