16
 xtb: 6.7.1 (edcfbbe)
C            2.43032437400306       -0.29361914616107       -0.14835195053371
C            1.02289431616807        0.22036153738394       -0.44056553640197
C            0.05042749573358       -0.08115657501637        0.69954666468439
C           -1.36305652811542        0.44602998663479        0.48595472350780
N           -2.03590990452833       -0.23784031324352       -0.63790979357244
H            3.12067305189923       -0.06317906819079       -0.96638462809453
H            2.83246064816718        0.15727530777543        0.76621251684412
H            2.42872459776494       -1.38088898495148       -0.00909824340857
H            1.05234416878090        1.30583651317578       -0.60597905696427
H            0.65725480768896       -0.22706831523580       -1.37131641750878
H            0.00630299383888       -1.16758793080591        0.86761066065029
H            0.44322666143077        0.35721358680534        1.62667260964895
H           -1.31890693773003        1.51865884668998        0.25781553126277
H           -1.92143614095192        0.34731682330193        1.43087628932453
H           -2.99055262631575        0.10438267552737       -0.69487638526669
H           -2.12194559173958       -1.22102672816308       -0.39221331887864
