 xtb: 6.7.1 (edcfbbe)
          04112515533D

 20 19  0     0  0            999 V2000
   -2.7100   -0.9704   -0.4708 C   0  0  0  0  0  0  0  0  0  0  0  0
   -2.2063   -0.2633    0.7815 C   0  0  0  0  0  0  0  0  0  0  0  0
   -1.2941    0.9229    0.4397 C   0  0  0  0  0  0  0  0  0  0  0  0
   -0.0285    0.4485   -0.2264 C   0  0  0  0  0  0  0  0  0  0  0  0
    0.2590    0.6392   -1.3902 O   0  0  0  0  0  0  0  0  0  0  0  0
    0.7387   -0.2301    0.6178 O   0  0  0  0  0  0  0  0  0  0  0  0
    1.9824   -0.7629    0.1354 C   0  0  0  0  0  0  0  0  0  0  0  0
    3.0892    0.2788    0.1972 C   0  0  0  0  0  0  0  0  0  0  0  0
   -3.3455   -1.8102   -0.2031 H   0  0  0  0  0  0  0  0  0  0  0  0
   -3.2837   -0.2852   -1.0904 H   0  0  0  0  0  0  0  0  0  0  0  0
   -1.8774   -1.3430   -1.0649 H   0  0  0  0  0  0  0  0  0  0  0  0
   -1.6528   -0.9651    1.4073 H   0  0  0  0  0  0  0  0  0  0  0  0
   -3.0562    0.1088    1.3546 H   0  0  0  0  0  0  0  0  0  0  0  0
   -1.0189    1.4430    1.3572 H   0  0  0  0  0  0  0  0  0  0  0  0
   -1.8011    1.6095   -0.2378 H   0  0  0  0  0  0  0  0  0  0  0  0
    2.1934   -1.6056    0.7944 H   0  0  0  0  0  0  0  0  0  0  0  0
    1.8394   -1.1099   -0.8926 H   0  0  0  0  0  0  0  0  0  0  0  0
    3.1871    0.6616    1.2094 H   0  0  0  0  0  0  0  0  0  0  0  0
    4.0269   -0.1743   -0.1076 H   0  0  0  0  0  0  0  0  0  0  0  0
    2.8612    1.1039   -0.4740 H   0  0  0  0  0  0  0  0  0  0  0  0
  1  2  1  0  0  0  0
  2  3  1  0  0  0  0
  3  4  1  0  0  0  0
  4  5  2  0  0  0  0
  4  6  1  0  0  0  0
  6  7  1  0  0  0  0
  7  8  1  0  0  0  0
  1  9  1  0  0  0  0
  1 10  1  0  0  0  0
  1 11  1  0  0  0  0
  2 12  1  0  0  0  0
  2 13  1  0  0  0  0
  3 14  1  0  0  0  0
  3 15  1  0  0  0  0
  7 16  1  0  0  0  0
  7 17  1  0  0  0  0
  8 18  1  0  0  0  0
  8 19  1  0  0  0  0
  8 20  1  0  0  0  0
M  END
