13
 xtb: 6.7.1 (edcfbbe)
C            1.78871513289606        0.65954368676537        0.43938045166497
C            1.37448695028151       -0.36824044000837       -0.29976547385360
C           -0.05198421131599       -0.80819667972324       -0.48446989419115
C           -1.04195734227623       -0.11324386467578        0.39570761644146
C           -2.05526449657263        0.63067489049360       -0.04255580973224
H            2.84475027736032        0.90351893869847        0.50995478443936
H            1.09653053216527        1.28755615456609        0.99540132962996
H            2.11037543220319       -0.96440044331891       -0.83914173746059
H           -0.09363422690556       -1.89112957288011       -0.29353786273303
H           -0.32962016015912       -0.68321577203613       -1.54017608953476
H           -0.90009892902103       -0.24549770178887        1.46887995517084
H           -2.75012033760793        1.10265270526330        0.64668389558187
H           -2.22352333031673        0.78945373373165       -1.10600405427344
