 xtb: 6.7.1 (edcfbbe)
          04112515593D

 20 19  0     0  0            999 V2000
   -3.8884    0.3721    0.0237 C   0  0  0  0  0  0  0  0  0  0  0  0
   -2.6865   -0.5288    0.2811 C   0  0  0  0  0  0  0  0  0  0  0  0
   -1.3752    0.1791   -0.0504 C   0  0  0  0  0  0  0  0  0  0  0  0
   -0.1630   -0.7138    0.2228 C   0  0  0  0  0  0  0  0  0  0  0  0
    1.1145   -0.0565   -0.2286 C   0  0  0  0  0  0  0  0  0  0  0  0
    1.2616    0.5370   -1.2763 O   0  0  0  0  0  0  0  0  0  0  0  0
    2.0846   -0.2163    0.6649 O   0  0  0  0  0  0  0  0  0  0  0  0
    3.3758    0.3313    0.3799 C   0  0  0  0  0  0  0  0  0  0  0  0
   -3.8309    1.2687    0.6365 H   0  0  0  0  0  0  0  0  0  0  0  0
   -3.9203    0.6739   -1.0206 H   0  0  0  0  0  0  0  0  0  0  0  0
   -4.8127   -0.1483    0.2606 H   0  0  0  0  0  0  0  0  0  0  0  0
   -2.6772   -0.8311    1.3300 H   0  0  0  0  0  0  0  0  0  0  0  0
   -2.7731   -1.4315   -0.3265 H   0  0  0  0  0  0  0  0  0  0  0  0
   -1.2929    1.0907    0.5451 H   0  0  0  0  0  0  0  0  0  0  0  0
   -1.3645    0.4709   -1.1026 H   0  0  0  0  0  0  0  0  0  0  0  0
   -0.2666   -1.6426   -0.3433 H   0  0  0  0  0  0  0  0  0  0  0  0
   -0.0759   -0.9584    1.2808 H   0  0  0  0  0  0  0  0  0  0  0  0
    3.4366    1.3372    0.7950 H   0  0  0  0  0  0  0  0  0  0  0  0
    3.5333    0.3711   -0.6985 H   0  0  0  0  0  0  0  0  0  0  0  0
    4.0972   -0.3243    0.8592 H   0  0  0  0  0  0  0  0  0  0  0  0
  1  2  1  0  0  0  0
  2  3  1  0  0  0  0
  3  4  1  0  0  0  0
  4  5  1  0  0  0  0
  5  6  2  0  0  0  0
  5  7  1  0  0  0  0
  7  8  1  0  0  0  0
  1  9  1  0  0  0  0
  1 10  1  0  0  0  0
  1 11  1  0  0  0  0
  2 12  1  0  0  0  0
  2 13  1  0  0  0  0
  3 14  1  0  0  0  0
  3 15  1  0  0  0  0
  4 16  1  0  0  0  0
  4 17  1  0  0  0  0
  8 18  1  0  0  0  0
  8 19  1  0  0  0  0
  8 20  1  0  0  0  0
M  END
