33
 xtb: 6.7.1 (edcfbbe)
C           -4.55270937521017       -1.11717011324356       -0.42057813703973
C           -3.81256329136424       -2.28694598030635       -0.24186148857470
C           -2.44318897129851       -2.22280301582551       -0.02055702104990
C           -1.79278330120049       -0.98678752754684        0.02289800067894
C           -2.53972863962688        0.18894767471121       -0.15806549720363
C           -3.91821390564726        0.11556580701129       -0.37797719911958
C           -1.87504240823824        1.50295590473597       -0.11619629321672
O           -2.52349991323990        2.54586220304296       -0.24874949823580
C           -0.40525987935250        1.53483569425520        0.08420689249919
C            0.21262807454316        2.77476512750189        0.06871038235130
C            1.59611879543938        2.86062083256797        0.24721334288655
C            2.35601474562613        1.73166879480207        0.44744729339684
C            1.76136408444180        0.44293866719182        0.48814717025605
C            0.34179156044264        0.34163644328364        0.28532248493651
C           -0.32798050994187       -0.94604369724319        0.26435763193387
O            0.27786303455084       -2.02633436997140        0.43809972287762
N            2.51378180930963       -0.65137735546264        0.73636733374296
C            3.96942990619857       -0.67909861704530        0.76529546480930
C            4.60611198195849       -0.62966942251726       -0.61146409295801
O            4.22788694517538       -1.81983256806261       -1.32308783039929
H           -5.62250454059671       -1.17089625971312       -0.59301352518989
H           -4.30788334588044       -3.25184267752483       -0.27555530126031
H           -1.86788406023110       -3.13066390681384        0.11866830942510
H           -4.48072628572917        1.03226695510606       -0.51530758868039
H           -0.38206561863347        3.66659985859612       -0.08613459034949
H            2.08251957340513        3.83058384390794        0.22694481802223
H            3.42555236599829        1.83219926800798        0.58083617688134
H            2.01962771594369       -1.53383630110424        0.65658844773370
H            4.26226366875764       -1.60972294099035        1.26088973538870
H            4.36207674667991        0.14193007520601        1.37318250600143
H            5.69717495521511       -0.57920560968116       -0.49013681795331
H            4.27416240978964        0.26370351192328       -1.15754092047970
H            4.55770465353310       -1.73488327428492       -2.22615073264908
