11
CONF1
C -0.0002908540 1.2903591610 0.0008110866
C -0.9307524551 0.4906645172 -0.8808910561
Cl -2.0378766099 -0.6007944305 0.1076452254
C 0.9303436438 0.4895020915 0.8812712939
Cl 2.0377304942 -0.6001702541 -0.1089486144
H 0.5797514672 1.9436331169 -0.6630637018
H -0.5804817322 1.9424623264 0.6657064738
H -1.5903278941 1.1453408911 -1.4509088066
H -0.3924817097 -0.1720141629 -1.5600536068
H 0.3922212684 -0.1743546937 1.5593978181
H 1.5897699131 1.1434375123 1.4523081207
11
CONF2
C -0.0379050416 0.8922621591 0.2704661638
C -0.8610839108 -0.3781307924 0.2548913364
Cl -2.5406019274 -0.0403044935 -0.4077425856
C 1.3317816588 0.6738489705 0.8771646359
Cl 2.3709950910 -0.4400840939 -0.1631839756
H 0.0541377062 1.3073023530 -0.7376246615
H -0.5326180338 1.6441421165 0.8978098909
H -0.4350199249 -1.1441786341 -0.3939498554
H -1.0066591971 -0.7807711563 1.2591369152
H 1.2799984140 0.1989244373 1.8586062010
H 1.8843995768 1.6108839773 0.9467668605
11
CONF4
C -0.0000091675 -0.1430102611 -0.0000374354
C -1.2244752082 0.7470990640 -0.1088872213
Cl -2.7430731414 -0.2737894894 -0.2569731948
C 1.2244348438 0.7471090509 0.1090010592
Cl 2.7430571780 -0.2737707109 0.2569097154
H -0.0788984900 -0.7813069269 0.8847439921
H 0.0788947996 -0.7811205233 -0.8849503222
H -1.3631986794 1.3657736968 0.7791763318
H -1.1974372976 1.3764637985 -0.9998775469
H 1.1973700177 1.3762989265 1.0001144222
H 1.3631539251 1.3659630927 -0.7789413967
