 xtb: 6.7.1 (edcfbbe)
          04112513033D

 22 21  0     0  0            999 V2000
    1.9032    0.9760    0.5822 C   0  0  0  0  0  0  0  0  0  0  0  0
    1.2157   -0.3114    0.1064 C   0  0  0  0  0  0  0  0  0  0  0  0
    2.1251   -1.0705   -0.8597 C   0  0  0  0  0  0  0  0  0  0  0  0
   -0.0607   -0.0744   -0.5514 N   0  0  0  0  0  0  0  0  0  0  0  0
   -1.1988    0.2002    0.3186 C   0  0  0  0  0  0  0  0  0  0  0  0
   -1.8154   -1.1260    0.7703 C   0  0  0  0  0  0  0  0  0  0  0  0
   -2.2321    1.0292   -0.4391 C   0  0  0  0  0  0  0  0  0  0  0  0
    1.2560    1.5348    1.2555 H   0  0  0  0  0  0  0  0  0  0  0  0
    2.8236    0.7409    1.1097 H   0  0  0  0  0  0  0  0  0  0  0  0
    2.1432    1.6082   -0.2711 H   0  0  0  0  0  0  0  0  0  0  0  0
    1.0191   -0.9484    0.9761 H   0  0  0  0  0  0  0  0  0  0  0  0
    2.3392   -0.4574   -1.7317 H   0  0  0  0  0  0  0  0  0  0  0  0
    1.6336   -1.9804   -1.1901 H   0  0  0  0  0  0  0  0  0  0  0  0
    3.0622   -1.3282   -0.3740 H   0  0  0  0  0  0  0  0  0  0  0  0
    0.0506    0.6721   -1.2295 H   0  0  0  0  0  0  0  0  0  0  0  0
   -0.8920    0.7649    1.2192 H   0  0  0  0  0  0  0  0  0  0  0  0
   -2.6618   -0.9438    1.4269 H   0  0  0  0  0  0  0  0  0  0  0  0
   -2.1502   -1.6854   -0.0984 H   0  0  0  0  0  0  0  0  0  0  0  0
   -1.0849   -1.7272    1.3048 H   0  0  0  0  0  0  0  0  0  0  0  0
   -3.1104    1.1922    0.1795 H   0  0  0  0  0  0  0  0  0  0  0  0
   -2.5317    0.5055   -1.3432 H   0  0  0  0  0  0  0  0  0  0  0  0
   -1.8205    1.9982   -0.7151 H   0  0  0  0  0  0  0  0  0  0  0  0
  1  2  1  0  0  0  0
  2  3  1  0  0  0  0
  2  4  1  0  0  0  0
  4  5  1  0  0  0  0
  5  6  1  0  0  0  0
  5  7  1  0  0  0  0
  1  8  1  0  0  0  0
  1  9  1  0  0  0  0
  1 10  1  0  0  0  0
  2 11  1  0  0  0  0
  3 12  1  0  0  0  0
  3 13  1  0  0  0  0
  3 14  1  0  0  0  0
  4 15  1  0  0  0  0
  5 16  1  0  0  0  0
  6 17  1  0  0  0  0
  6 18  1  0  0  0  0
  6 19  1  0  0  0  0
  7 20  1  0  0  0  0
  7 21  1  0  0  0  0
  7 22  1  0  0  0  0
M  END
