16
CONF1
C 2.5517955356 -0.3230447255 -0.0001745707
C 1.2828061417 0.5216782549 0.0001025584
C 0.0247203334 -0.3424688628 0.0002817518
C -1.2556110470 0.5037545227 -0.0000921190
N -2.4944648220 -0.2600764949 -0.0000990544
H 2.5861754985 -0.9588740246 -0.8820797760
H 3.4332991558 0.3130624941 -0.0004453406
H 2.5866434476 -0.9587820302 0.8817775625
H 1.2746575479 1.1665626575 0.8815443493
H 1.2743384604 1.1666364839 -0.8812832670
H 0.0283992937 -0.9879061541 -0.8828735295
H 0.0282618268 -0.9873745655 0.8838248055
H -1.2661675983 1.1477022064 -0.8840903095
H -1.2664269080 1.1481269012 0.8835937155
H -2.5208365376 -0.8621429702 -0.8166767257
H -2.5210309237 -0.8618556662 0.8166834005
16
CONF2
C 2.4332623654 -0.2525812507 0.1397440026
C 1.0144476112 0.2344697602 0.4095946522
C 0.0624546281 -0.1421498535 -0.7244864391
C -1.3628124976 0.3944616288 -0.5168796246
N -2.0936789785 -0.1694437956 0.6073206769
H 2.8186404573 0.1886243680 -0.7766497802
H 3.0936365711 0.0221462086 0.9585523901
H 2.4508138033 -1.3349173947 0.0316947938
H 0.6629997865 -0.2009589170 1.3482834639
H 1.0186006167 1.3207842559 0.5274402155
H 0.4476491595 0.2613499719 -1.6630421105
H 0.0250963728 -1.2308877570 -0.8215399916
H -1.9516853238 0.1936154873 -1.4167071751
H -1.3257901789 1.4779702059 -0.3742289346
H -1.6117756167 0.0461986453 1.4733029993
H -2.1221957797 -1.1801104183 0.5198022387
16
CONF5
C 1.9237544752 -0.7278447577 -0.1629099029
C 1.1272887924 0.3432959213 0.5739711482
C 0.0246794509 0.9709272735 -0.2818342748
C -1.1134370688 0.0068819826 -0.6564803776
N -1.8892419105 -0.5173010359 0.4567561182
H 2.7403155361 -1.0840724535 0.4607393370
H 1.2963473162 -1.5781864076 -0.4175144713
H 2.3431275405 -0.3229555402 -1.0812136832
H 0.6927189761 -0.0857511374 1.4804977831
H 1.8090479628 1.1369779563 0.8888091373
H -0.4040196352 1.8178878268 0.2619498787
H 0.4639204446 1.3569762062 -1.2037160859
H -0.7136036365 -0.8455716867 -1.2096575062
H -1.8103174378 0.5326656237 -1.3160800056
H -1.2887145574 -1.0616725654 1.0667865154
H -2.2584665916 0.2527908962 1.0051018026
16
CONF4
C 1.9486995196 -0.7165479326 0.1467976443
C 1.1250524741 0.3482393971 -0.5690602226
C 0.0254614368 0.9496281581 0.3091614234
C -1.1124636187 -0.0252971197 0.6549197461
N -1.9119368267 -0.4859076619 -0.4697309330
H 2.7550535533 -1.0625468359 -0.4955751890
H 2.3839713795 -0.3096560113 1.0567962411
H 1.3358718707 -1.5739350835 0.4128734838
H 1.7901531413 1.1549264201 -0.8864224824
H 0.6840120905 -0.0798065733 -1.4729118496
H 0.4681007549 1.3058836581 1.2413296225
H -0.4050164956 1.8137099656 -0.2055145950
H -1.7939295362 0.4697122687 1.3532010277
H -0.7090597124 -0.9080170720 1.1555402718
H -1.3258465367 -0.9977396373 -1.1206202466
H -2.2891012005 0.3140455108 -0.9676603069
16
CONF6
C 2.5392833058 -0.3600145513 -0.0161277266
C 1.2863731549 0.5077215821 -0.0288771956
C 0.0146050412 -0.3348373075 0.0179248236
C -1.2459604399 0.5269724554 0.0109635123
N -2.4349410846 -0.3151235351 -0.0362503657
H 2.5744548000 -0.9652247178 0.8868503923
H 2.5474446663 -1.0264829798 -0.8752548839
H 3.4324631889 0.2586894782 -0.0509023832
H 1.3031651185 1.1837589673 0.8294392510
H 1.2777799244 1.1211053337 -0.9323710563
H -0.0189703766 -1.0041595418 -0.8427414487
H 0.0203025512 -0.9524339502 0.9194901687
H -1.2527634394 1.1542427163 -0.8854048130
H -1.2274558652 1.1985663484 0.8878370882
H -3.2670546672 0.2637375729 -0.0318263406
H -2.4671124702 -0.9024050308 0.7907113058
16
CONF3
C 2.1250591507 -0.3239768734 -0.6025943625
C 1.3873038634 0.4870544073 0.4569107404
C -0.0217205214 -0.0334288122 0.7407001366
C -0.9893333476 0.1582328858 -0.4356424959
N -2.3656446736 -0.2251530535 -0.1549226980
H 1.6333503738 -0.2425356574 -1.5680895613
H 3.1446933914 0.0382307707 -0.7092110580
H 2.1617682678 -1.3738973020 -0.3204513703
H 1.9609076797 0.4576281809 1.3863620724
H 1.3259592349 1.5301344931 0.1387460806
H 0.0287464914 -1.0958013412 0.9956490177
H -0.4241575749 0.4978437637 1.6087280161
H -0.6590783308 -0.4334172935 -1.2922404862
H -0.9955321537 1.2110115865 -0.7325992700
H -2.7135124878 0.3123670266 0.6327262101
H -2.3957263903 -1.2032754230 0.1140904567
16
CONF8
C 2.4304976620 -0.2955703642 -0.1274053735
C 1.0305873473 0.2415282971 -0.4003346796
C 0.0500067317 -0.1639479461 0.6989988432
C -1.3479554072 0.4261620050 0.5091002312
N -2.0526856318 -0.2289289137 -0.5863753530
H 2.4152722427 -1.3814192273 -0.0719780516
H 3.1144865480 -0.0000821384 -0.9192383552
H 2.8088811283 0.0901634777 0.8165327565
H 1.0671787601 1.3320998279 -0.4671172220
H 0.6845891817 -0.1427336993 -1.3616848740
H -0.0358299999 -1.2507409322 0.7289662614
H 0.4381377207 0.1744689051 1.6618140946
H -1.2601588179 1.5186292250 0.3722723309
H -1.9339230018 0.2512867524 1.4161313886
H -1.5667029023 -0.0526824699 -1.4591868769
H -2.9837203870 0.1616599701 -0.6754444293
16
CONF9
C 2.1251060495 -0.3393890459 0.5861147048
C 1.3849189938 0.4527939139 -0.4858860652
C -0.0375725699 -0.0488947205 -0.7328646746
C -0.9816489855 0.2059806365 0.4407657346
N -2.3186344607 -0.2801217963 0.1211742883
H 2.1319301347 -1.3978173536 0.3370208097
H 3.1542414913 0.0032779055 0.6626940397
H 1.6538841030 -0.2172449243 1.5575946912
H 1.3507799957 1.5069973957 -0.2003023367
H 1.9418064656 0.3822350846 -1.4226722065
H -0.4423337323 0.4543033039 -1.6148566193
H -0.0227694024 -1.1194429512 -0.9410380928
H -0.9625113454 1.2824747072 0.6886457844
H -0.6413508727 -0.3457752136 1.3202512054
H -2.6798442179 0.2223493354 -0.6831897069
H -2.9445166082 -0.1019286179 0.8983946218
16
CONF17
C 1.9761357769 -0.6545114685 0.2028965127
C 1.1197430041 0.3057846380 -0.6159773557
C 0.0001321164 0.9640689205 0.1937210788
C -1.0929829002 0.0059184374 0.6710565300
N -1.9065825890 -0.4626396692 -0.4451569034
H 2.3903180123 -0.1464213886 1.0709812309
H 1.3952219588 -1.5055419885 0.5495921088
H 2.7987988208 -1.0317612811 -0.3999344648
H 1.7609405324 1.0975115110 -1.0096725873
H 0.6943746107 -0.2203106244 -1.4726122833
H 0.4357387299 1.4502279955 1.0689589472
H -0.4754314963 1.7302029535 -0.4202241664
H -1.7600407917 0.5497754946 1.3466824397
H -0.6385068553 -0.8163407910 1.2477883727
H -1.3342329954 -1.0118297006 -1.0776558300
H -2.6413634045 -1.0697210695 -0.1004020860
16
CONF10
C 2.1441732067 -0.2652357200 0.5807757859
C 1.3687483928 0.4575213477 -0.5157560871
C -0.0413210177 -0.0944056532 -0.7230683682
C -0.9752327768 0.1636678234 0.4583105274
N -2.3449898116 -0.1806520202 0.0919439574
H 2.1830396481 -1.3332020741 0.3777069677
H 3.1629141089 0.1113528160 0.6314129097
H 1.6792976181 -0.1149061996 1.5515651908
H 1.3062609732 1.5210362223 -0.2759447617
H 1.9167743835 0.3615628117 -1.4554739746
H -0.4854492055 0.3732308368 -1.6032856182
H 0.0130978938 -1.1698648868 -0.9092213918
H -0.9615296061 1.2294948104 0.7055198692
H -0.6203029881 -0.3926820866 1.3413533239
H -2.9612278064 -0.0255655845 0.8818357308
H -2.3936101242 -1.1667786707 -0.1429547069
16
CONF15
C 2.0133314001 -0.6361240246 -0.1784030997
C 1.1177967943 0.3173119495 0.6058715793
C 0.0006317382 0.9325035480 -0.2404287234
C -1.0906032519 -0.0516487875 -0.6664131921
N -1.9430767060 -0.4081755716 0.4622625926
H 2.4455763424 -0.1283285301 -1.0377847764
H 2.8232542326 -0.9957897469 0.4517990923
H 1.4559341644 -1.4983711454 -0.5359030292
H 0.6872645953 -0.2046557010 1.4625510084
H 1.7323691108 1.1301291599 0.9987571625
H -0.4790538316 1.7296423912 0.3292120877
H 0.4396584090 1.3719224754 -1.1382076651
H -0.6309835631 -0.9278447118 -1.1524657466
H -1.7306282189 0.4362105218 -1.4076374883
H -1.3950558656 -0.8942348257 1.1642652159
H -2.6697366975 -1.0440811342 0.1540150746
16
CONF7
C 2.3926805269 -0.3208104577 -0.1772258075
C 0.9953750159 0.2399303040 -0.4110449565
C 0.0621758536 -0.0524541301 0.7608697061
C -1.3590143075 0.4450502572 0.5014857168
N -1.9479332608 -0.2471656304 -0.6378952668
H 3.0397750530 -0.0956394766 -1.0211544987
H 2.8326640655 0.1117980709 0.7189321543
H 2.3546698046 -1.4006490410 -0.0521186707
H 1.0552253418 1.3202153391 -0.5580500728
H 0.5660255781 -0.1944035930 -1.3141999216
H 0.0345020303 -1.1301511962 0.9400914497
H 0.4432097927 0.4273483244 1.6647825592
H -1.3323341042 1.5114414808 0.2589579404
H -1.9510979200 0.3256674517 1.4265336350
H -2.8924742625 0.0856302464 -0.7924357033
H -2.0006382947 -1.2410926311 -0.4395333396
16
CONF16
C 2.0343822535 -0.6279574051 -0.1509214131
C 1.1158814735 0.3364204465 0.5923284201
C 0.0013520299 0.9066275669 -0.2882759140
C -1.0897414034 -0.0998919214 -0.6589122403
N -1.9627989433 -0.3649325006 0.4792446172
H 2.8348450309 -0.9656004241 0.5030423808
H 1.4907121199 -1.5029513942 -0.4984746159
H 2.4790471585 -0.1373503668 -1.0138970364
H 0.6816879257 -0.1655677173 1.4590881769
H 1.7140170454 1.1693758927 0.9677943113
H -0.4795959988 1.7342798580 0.2348030625
H 0.4428638483 1.2954318049 -1.2078146148
H -0.6286883694 -1.0132595618 -1.0692565078
H -1.7147243243 0.3338715768 -1.4451424010
H -1.4284920883 -0.7942088099 1.2272663373
H -2.6858849691 -1.0221341354 0.2098910162
16
CONF11
C 1.9838618952 -0.6686745979 -0.1886006141
C 1.0762672495 0.2463856011 0.6250642591
C 0.0271150309 0.9585251032 -0.2293527594
C -1.1041325027 0.0347900959 -0.6812383738
N -1.8242556784 -0.4963948541 0.4691674389
H 2.7369084455 -1.1187205121 0.4535806886
H 1.4130925837 -1.4683881197 -0.6524159252
H 2.4903066794 -0.1069491553 -0.9710526121
H 0.5607508271 -0.3350405007 1.3898224984
H 1.6902146066 0.9988829173 1.1246711714
H -0.4084708540 1.7758615267 0.3509257100
H 0.5017804054 1.3910880689 -1.1123529767
H -0.6940234267 -0.8147443526 -1.2326455137
H -1.7577845797 0.5956019291 -1.3734126167
H -2.5814044605 -1.0927984826 0.1563929120
H -2.2323031487 0.2687259673 0.9966163344
16
CONF13
C 1.7734386527 -0.8196099211 0.3684504421
C 1.2154826178 0.5775339148 0.1098712887
C 0.0367804344 0.5930788008 -0.8730956361
C -1.3444280426 0.5096850941 -0.2011659137
N -1.6434605761 -0.7124415815 0.5265899067
H 2.6091592744 -0.7675471251 1.0628747292
H 1.0219637535 -1.4804686824 0.7930442614
H 2.1289557409 -1.2614872502 -0.5602939638
H 0.9036831642 1.0299904148 1.0544444376
H 2.0214267088 1.1943401887 -0.2935059979
H 0.0575752952 1.5222002955 -1.4456595517
H 0.1427524305 -0.2317668843 -1.5821313618
H -2.1127253625 0.6198170022 -0.9730900990
H -1.4542943605 1.3420124001 0.4998034668
H -1.0072423348 -0.8099778829 1.3102030544
H -1.5077209297 -1.5130671652 -0.0819343170
16
CONF12
C 1.6459891377 -0.7753908059 -0.5134683844
C 1.3673864560 0.5524384030 0.1826274077
C -0.0065792209 0.6285968097 0.8520196721
C -1.1979128235 0.5411775381 -0.1233931461
N -1.7378103270 -0.7890809013 -0.3611708707
H 1.4984225975 -1.6067441085 0.1732462553
H 0.9952134960 -0.9075155687 -1.3745672720
H 2.6746609907 -0.8040475035 -0.8657396368
H 2.1291856136 0.7151187906 0.9492730992
H 1.4533277384 1.3640519958 -0.5434809824
H -0.0949737724 -0.1706747642 1.5934535603
H -0.0663488755 1.5780308186 1.3879337633
H -0.9098252622 0.9594135783 -1.0914582999
H -2.0233546869 1.1443575427 0.2650651173
H -2.0451116576 -1.1915279834 0.5180630337
H -1.0172011449 -1.3978146382 -0.7329814128
16
CONF14
C 2.4034162077 -0.3387290120 -0.3740298217
C 1.3248405096 0.5251441313 0.2709683782
C 0.0067327297 -0.2396695999 0.4762057943
C -1.1726655974 0.4198044652 -0.2536250635
N -2.4444750835 -0.2729544770 -0.1109959481
H 2.6283921769 -1.1997542376 0.2515698642
H 2.0731891503 -0.6954034780 -1.3470593746
H 3.3178902421 0.2335581923 -0.5109880609
H 1.6924933567 0.8963655024 1.2288259223
H 1.1419001744 1.3944288466 -0.3639775107
H 0.1154815738 -1.2623323492 0.1059063794
H -0.2320198841 -0.3033591204 1.5407803841
H -0.9500324122 0.4800480919 -1.3227399128
H -1.3097073675 1.4383259809 0.1206561671
H -2.6886823597 -0.3340462293 0.8720860648
H -2.3530901922 -1.2227298919 -0.4568529736
16
CONF19
C 1.6569884524 -0.7538923489 0.5140119645
C 1.3646843926 0.5319490429 -0.2512165863
C -0.0349969798 0.5830463341 -0.8672588745
C -1.1776284544 0.5586013765 0.1558928062
N -1.7120922113 -0.7897236904 0.3107298835
H 1.0392360754 -0.8265141017 1.4061443106
H 1.4709187186 -1.6214616688 -0.1151925781
H 2.6981010005 -0.7748722865 0.8285011761
H 1.4922191537 1.3866581390 0.4179642574
H 2.0941411148 0.6347837779 -1.0577129815
H -0.1098931806 1.4980360253 -1.4569551203
H -0.1725998664 -0.2615946404 -1.5436800492
H -2.0030844616 1.1793798018 -0.2048033939
H -0.8261804767 0.9975748042 1.1055933123
H -2.4607458448 -0.7860210679 0.9942398083
H -0.9874723628 -1.4112319932 0.6532673651
16
CONF21
C 1.7952515493 -0.8191668622 0.3581530024
C 1.2105502230 0.5650109876 0.0936912214
C 0.0295942071 0.5373671140 -0.8867940511
C -1.3432578310 0.5252124562 -0.2100644128
N -1.5851491182 -0.7170314739 0.5126354847
H 1.0291220252 -1.5078907125 0.7021530867
H 2.2259475760 -1.2233508268 -0.5550891896
H 2.5791474196 -0.7631016527 1.1105407949
H 0.8911171770 1.0169656499 1.0360412415
H 2.0006507840 1.1995375302 -0.3134777683
H 0.0645511076 1.4225905254 -1.5243242499
H 0.1091081286 -0.3416267991 -1.5263811597
H -2.1126568669 0.6039602929 -0.9839934352
H -1.4276410592 1.4182398830 0.4351427733
H -2.5335467666 -0.7235274675 0.8703162968
H -0.9620860084 -0.7711408649 1.3115625267
16
CONF20
C 2.3918222763 -0.3790312732 0.3697853751
C 1.3294765849 0.5056305333 -0.2733228915
C -0.0041162744 -0.2333884746 -0.4722067051
C -1.1633356302 0.4482283959 0.2531683422
N -2.3828323859 -0.3366773137 0.1057341360
H 2.5968141149 -1.2439819973 -0.2565741443
H 3.3180164493 0.1747799075 0.5050568806
H 2.0549234206 -0.7296092821 1.3423816036
H 1.1685374877 1.3808918335 0.3596305665
H 1.7019484911 0.8663654946 -1.2334308753
H -0.2479723829 -0.2977860340 -1.5344782245
H 0.0724229667 -1.2535218073 -0.0954025839
H -1.2675903194 1.4810863459 -0.1247415531
H -0.9389512178 0.5057227099 1.3223307149
H -2.6291003901 -0.3984129831 -0.8768496707
H -3.1488595296 0.1243597714 0.5834182556
16
CONF18
C 1.5919307922 -0.8460277538 -0.4438105659
C 1.3024672511 0.5697201228 0.0385326548
C 0.0162720039 0.6709133859 0.8596436395
C -1.2664101940 0.5516410190 0.0337622554
N -1.4915132517 -0.8072578940 -0.4431143206
H 1.7394339458 -1.5115720950 0.4039647965
H 0.7570791689 -1.2150992485 -1.0311353172
H 2.4925804783 -0.8615274372 -1.0530607944
H 2.1359628754 0.9159545467 0.6551313780
H 1.2276656465 1.2384420703 -0.8213609274
H 0.0179304567 -0.1023414454 1.6312590709
H -0.0037859112 1.6416873378 1.3600545905
H -1.1926381367 1.1991513815 -0.8450255711
H -2.1060458552 0.9218878857 0.6499066947
H -2.3635141630 -0.8483612552 -0.9581992663
H -1.5716458196 -1.4361152397 0.3494358189
