16
CONF1
C 2.5544264804 -0.3226284298 -0.0000997920
C 1.2813205859 0.5187658979 0.0000166608
C 0.0116931762 -0.3318588192 0.0001583767
C -1.2620945528 0.5083463983 -0.0000705013
N -2.5212064828 -0.2605852182 -0.0000077040
H 2.5975651563 -0.9678696580 -0.8847032635
H 3.4511035373 0.3057666387 -0.0002481218
H 2.5977998975 -0.9677905098 0.8845495803
H 1.2744904370 1.1764921392 0.8791998839
H 1.2743121926 1.1764465056 -0.8791998944
H 0.0092977729 -0.9880777863 -0.8819453351
H 0.0092379431 -0.9877127931 0.8825331176
H -1.2621703111 1.1657084661 -0.8784393561
H -1.2622823944 1.1660494608 0.8780432195
H -2.5034167164 -0.8831685754 -0.8041061884
H -2.5035175167 -0.8828855058 0.8043125080
16
CONF2
C 2.4310897404 -0.2569872097 0.1475987040
C 1.0094739411 0.2337756912 0.4085425937
C 0.0496775387 -0.1298022508 -0.7237621518
C -1.3725688286 0.3939777271 -0.5242638262
N -2.1077149915 -0.1687618975 0.6253788219
H 2.8338006876 0.1788482354 -0.7736229901
H 3.1053755811 0.0110343718 0.9675072892
H 2.4549277466 -1.3469921013 0.0376579530
H 0.6497505490 -0.1916517087 1.3539425093
H 1.0129312332 1.3244887570 0.5378800260
H 0.4417865267 0.2755742781 -1.6673082044
H 0.0168162696 -1.2226390389 -0.8421165823
H -1.9580987579 0.1945364855 -1.4292178093
H -1.3429302283 1.4845591938 -0.4075204155
H -1.5795284407 0.0309825786 1.4700883083
H -2.0851244899 -1.1823713250 0.5414174980
16
CONF4
C 1.8507474037 -0.7624428637 0.0738322476
C 1.1156748462 0.4122801514 -0.5689144803
C 0.0131671388 1.0019326588 0.3155859141
C -1.0945012915 0.0181478439 0.7001420328
N -1.8185985534 -0.5976246644 -0.4280403835
H 2.6940712047 -1.0850329135 -0.5452326907
H 2.2441483582 -0.4868701538 1.0592630136
H 1.1932378929 -1.6278103942 0.2087303118
H 1.8352542074 1.2059833400 -0.8035396832
H 0.6906510588 0.0963296808 -1.5305713347
H 0.4636058636 1.3912759131 1.2397223189
H -0.4422634084 1.8594738310 -0.1984955637
H -1.8235737068 0.5418855564 1.3295005740
H -0.6821074737 -0.7874663185 1.3180835622
H -1.1516508825 -1.1331291754 -0.9772021597
H -2.1188461007 0.1497336174 -1.0497118415
16
CONF6
C 2.5478306245 -0.3531098039 -0.0051853703
C 1.2836712228 0.5015651204 -0.0166694953
C 0.0080866455 -0.3389662010 -0.0199253558
C -1.2526735702 0.5117315007 -0.0272186425
N -2.4638541304 -0.3330197689 -0.0051189645
H 2.5831880373 -0.9882097821 0.8872671644
H 2.5861012779 -1.0093361879 -0.8820336814
H 3.4507226583 0.2662698609 -0.0109963084
H 1.2793578352 1.1634276975 0.8591680241
H 1.2877463376 1.1547452861 -0.8992976358
H 0.0058354594 -1.0013328776 -0.8961014464
H -0.0008474234 -0.9890536021 0.8671105453
H -1.2747512496 1.1198676552 -0.9398348061
H -1.2108320882 1.2158714035 0.8204898487
H -3.2771849103 0.2742232803 0.0356517630
H -2.4707795211 -0.8405595096 0.8761388972
16
CONF5
C 1.8442860907 -0.7657090048 -0.1048837972
C 1.1191150899 0.3942319076 0.5743517778
C 0.0116846143 1.0120705506 -0.2848246582
C -1.0992207880 0.0414140260 -0.6921134068
N -1.8167768813 -0.6073834443 0.4217631177
H 2.6870988681 -1.1118155670 0.5021829762
H 1.1806474600 -1.6224192390 -0.2628501142
H 2.2369704767 -0.4640418925 -1.0829157151
H 0.7005488782 0.0547864083 1.5307985638
H 1.8435976079 1.1788124476 0.8238893343
H -0.4397514846 1.8533373253 0.2588830761
H 0.4564084246 1.4301962295 -1.1991154882
H -0.6915929440 -0.7454800097 -1.3367334209
H -1.8314668410 0.5846502691 -1.3007805134
H -1.1463979524 -1.1592441961 0.9501861243
H -2.1117468508 0.1216342879 1.0673449580
16
CONF20
C 2.5252500845 -0.3940286083 0.0159549517
C 1.2788781412 0.4797772028 0.1272294080
C -0.0141514698 -0.3231859560 -0.0046716975
C -1.2572188903 0.5436402874 0.1277396789
N -2.4857346715 -0.2603206282 -0.0345872816
H 2.5586867989 -0.9075014450 -0.9515805232
H 3.4404787994 0.1992797162 0.1116277534
H 2.5386826707 -1.1592865398 0.8001383610
H 1.2814471780 1.0033330676 1.0923626251
H 1.3037245076 1.2564169305 -0.6480866656
H -0.0295958911 -0.8284618597 -0.9812758445
H -0.0372063045 -1.1115410467 0.7595405366
H -1.1923448058 1.3705297378 -0.5987417690
H -1.2759292766 1.0008546984 1.1245236464
H -2.4977341781 -0.6179968817 -0.9864907049
H -3.2860241053 0.3631285934 0.0206626008
16
CONF8
C 2.4280791699 -0.2997628204 -0.1414424601
C 1.0130661079 0.2085724906 -0.4062237611
C 0.0475940594 -0.1500948849 0.7242247011
C -1.3616664380 0.3931639764 0.5284997407
N -2.0226943209 -0.2094683081 -0.6473830386
H 2.4394097261 -1.3917470809 -0.0474530405
H 3.1112148924 -0.0272235043 -0.9526023642
H 2.8283032973 0.1183652079 0.7893352985
H 1.0282205182 1.2998415802 -0.5315510814
H 0.6554463537 -0.2106951099 -1.3549914729
H 0.0057263019 -1.2420560410 0.8387455067
H 0.4424980661 0.2520694545 1.6667641579
H -1.3115962730 1.4935537880 0.4685344716
H -1.9635027964 0.1539161607 1.4123103930
H -1.5304832550 0.0972673265 -1.4814981488
H -2.9509599997 0.1941913950 -0.7302126422
16
CONF15
C 1.8617680030 -0.7215702984 -0.0854996542
C 1.1107825161 0.4124351700 0.6094427901
C -0.0093209973 1.0220096626 -0.2419723622
C -1.0760642560 0.0316777944 -0.6932278966
N -1.7659112151 -0.5864830819 0.4577100390
H 2.2615069706 -0.3943068969 -1.0524460920
H 2.7025940113 -1.0665168772 0.5249019282
H 1.2138657477 -1.5855347657 -0.2685486886
H 0.7031178571 0.0519970790 1.5628328316
H 1.8186192700 1.2091254953 0.8689467133
H -0.4890044257 1.8329434956 0.3212752043
H 0.4324755158 1.4750870832 -1.1395080131
H -0.6205387715 -0.7149584271 -1.3636291444
H -1.8235688303 0.5672110322 -1.2890815023
H -1.0933200028 -1.1587730470 0.9612910397
H -2.4503049373 -1.2458137165 0.0990184032
16
CONF17
C 1.8498687082 -0.7258084453 0.1303834631
C 1.1130144415 0.3803787483 -0.6214975894
C -0.0092238980 1.0372862858 0.1911643646
C -1.0822842724 0.0755430816 0.6869947088
N -1.7635714737 -0.6043623870 -0.4334606940
H 2.2423699620 -0.3587604426 1.0857796101
H 1.1950852740 -1.5770965756 0.3446645684
H 2.6944609798 -1.1019993838 -0.4560824280
H 1.8286728845 1.1592264503 -0.9109449232
H 0.7105888286 -0.0200137381 -1.5608632501
H 0.4295104697 1.5339765563 1.0670180999
H -0.4819518996 1.8206669398 -0.4154777110
H -1.8335931687 0.6450084606 1.2457026834
H -0.6344209024 -0.6331529745 1.4020428076
H -1.0868241228 -1.2017905821 -0.9008565429
H -2.4494495764 -1.2446802601 -0.0445003229
16
CONF16
C 1.8729239007 -0.7174564830 -0.0450394516
C 1.1090199961 0.4420220292 0.5921166991
C -0.0083049368 1.0032453474 -0.2949680677
C -1.0735482670 -0.0107502159 -0.6944788927
N -1.7708312953 -0.5610685465 0.4866419832
H 2.7123973572 -1.0278087865 0.5854142749
H 1.2320376582 -1.5935447952 -0.1924677324
H 2.2760951841 -0.4314651267 -1.0237892671
H 0.6962319235 0.1226708390 1.5579404275
H 1.8096449805 1.2547692471 0.8198980746
H -0.4910856161 1.8430053866 0.2213945454
H 0.4365443542 1.4070087667 -1.2141774529
H -0.6158050674 -0.7952443412 -1.3187489802
H -1.8173211192 0.4904402507 -1.3239607143
H -1.1037447171 -1.1099842501 1.0228747640
H -2.4593666285 -1.2336968352 0.1621010660
16
CONF3
C 2.1178845637 -0.3184061512 -0.6121660646
C 1.3896585796 0.4825275068 0.4668134584
C -0.0351651571 -0.0088071090 0.7421642024
C -0.9886292713 0.1543174875 -0.4403965040
N -2.3831215952 -0.2447183494 -0.1663082876
H 1.6402305244 -0.2116713823 -1.5912861381
H 3.1559980300 0.0143522443 -0.7155912268
H 2.1322848685 -1.3858496916 -0.3622052207
H 1.9650783797 0.4332462654 1.3991545024
H 1.3563575899 1.5420093301 0.1795261145
H -0.0069710780 -1.0687059533 1.0339334174
H -0.4492201156 0.5447145643 1.5960883468
H -0.6335502800 -0.4325699054 -1.2944842400
H -0.9871941079 1.2036657435 -0.7623299187
H -2.6983350441 0.2728476409 0.6504166786
H -2.3722222711 -1.2159337732 0.1348330999
16
CONF9
C 2.1093103229 -0.2871733965 0.6137920041
C 1.3822478347 0.4394113435 -0.5166104347
C -0.0429126551 -0.0658579299 -0.7562345488
C -0.9653102796 0.1244657467 0.4400763678
N -2.3491719168 -0.2605734664 0.0962399085
H 2.1156907072 -1.3699297241 0.4417809330
H 3.1497242894 0.0454849111 0.6898407030
H 1.6353759872 -0.1062931570 1.5838790941
H 1.3529308299 1.5156859869 -0.3011888914
H 1.9548513410 0.3250530244 -1.4448058952
H -0.4717237243 0.4690838084 -1.6151110265
H -0.0158907314 -1.1300333591 -1.0274203829
H -0.8870331997 1.1694750666 0.7853494700
H -0.6363431400 -0.5077653130 1.2720797368
H -2.6767742192 0.3730187208 -0.6284136564
H -2.9434854932 -0.0742532535 0.8985987499
16
CONF10
C 2.1196071018 -0.2733770239 0.5993026745
C 1.3784304719 0.4515988875 -0.5233368117
C -0.0519201043 -0.0460757959 -0.7510112697
C -0.9790646673 0.1869063602 0.4333424310
N -2.3604522177 -0.2239307761 0.1033040199
H 2.1170078754 -1.3569195119 0.4319906928
H 3.1632485187 0.0534428313 0.6549309415
H 1.6646192552 -0.0857142032 1.5768262488
H 1.3554881487 1.5290210908 -0.3124561406
H 1.9405552315 0.3318481490 -1.4572448588
H -0.4737131981 0.4584592919 -1.6297260708
H -0.0293555844 -1.1209584216 -0.9832097798
H -0.9872329848 1.2562752534 0.6797178581
H -0.5885327922 -0.3399018463 1.3172242987
H -2.9306711850 -0.1223810045 0.9379537872
H -2.3473687545 -1.2237142714 -0.0828959763
16
CONF7
C 2.4303243729 -0.2936191460 -0.1483519505
C 1.0228943157 0.2203615373 -0.4405655362
C 0.0504274957 -0.0811565750 0.6995466644
C -1.3630565275 0.4460299864 0.4859547233
N -2.0359099036 -0.2378403131 -0.6379097933
H 3.1206730505 -0.0631790682 -0.9663846277
H 2.8324606469 0.1572753077 0.7662125165
H 2.4287245967 -1.3808889843 -0.0090982434
H 1.0523441683 1.3058365126 -0.6059790567
H 0.6572548074 -0.2270683151 -1.3713164169
H 0.0063029938 -1.1675879303 0.8676106603
H 0.4432266612 0.3572135866 1.6266726089
H -1.3189069371 1.5186588460 0.2578155311
H -1.9214361401 0.3473168231 1.4308762887
H -2.9905526250 0.1043826755 -0.6948763850
H -2.1219455908 -1.2210267276 -0.3922133187
