 xtb: 6.7.1 (edcfbbe)
          04112512243D

 22 21  0     0  0            999 V2000
    2.1767    1.1408   -0.5236 C   0  0  0  0  0  0  0  0  0  0  0  0
    1.1982    0.2727    0.2672 C   0  0  0  0  0  0  0  0  0  0  0  0
    1.8704   -1.0447    0.6786 C   0  0  0  0  0  0  0  0  0  0  0  0
   -0.0015    0.0831   -0.5346 N   0  0  0  0  0  0  0  0  0  0  0  0
   -1.2101   -0.3039    0.1843 C   0  0  0  0  0  0  0  0  0  0  0  0
   -2.1451   -1.0553   -0.7593 C   0  0  0  0  0  0  0  0  0  0  0  0
   -1.9002    0.9534    0.7189 C   0  0  0  0  0  0  0  0  0  0  0  0
    1.6946    2.0699   -0.8119 H   0  0  0  0  0  0  0  0  0  0  0  0
    3.0536    1.3662    0.0770 H   0  0  0  0  0  0  0  0  0  0  0  0
    2.4933    0.6217   -1.4250 H   0  0  0  0  0  0  0  0  0  0  0  0
    0.9013    0.8147    1.1720 H   0  0  0  0  0  0  0  0  0  0  0  0
    2.2094   -1.5829   -0.2050 H   0  0  0  0  0  0  0  0  0  0  0  0
    1.1761   -1.6799    1.2254 H   0  0  0  0  0  0  0  0  0  0  0  0
    2.7282   -0.8485    1.3160 H   0  0  0  0  0  0  0  0  0  0  0  0
    0.1964   -0.5849   -1.2724 H   0  0  0  0  0  0  0  0  0  0  0  0
   -0.9772   -0.9633    1.0417 H   0  0  0  0  0  0  0  0  0  0  0  0
   -3.0744   -1.3001   -0.2520 H   0  0  0  0  0  0  0  0  0  0  0  0
   -2.3696   -0.4360   -1.6238 H   0  0  0  0  0  0  0  0  0  0  0  0
   -1.6850   -1.9806   -1.1008 H   0  0  0  0  0  0  0  0  0  0  0  0
   -2.1598    1.6055   -0.1101 H   0  0  0  0  0  0  0  0  0  0  0  0
   -1.2418    1.4978    1.3904 H   0  0  0  0  0  0  0  0  0  0  0  0
   -2.8034    0.6858    1.2606 H   0  0  0  0  0  0  0  0  0  0  0  0
  1  2  1  0  0  0  0
  2  3  1  0  0  0  0
  2  4  1  0  0  0  0
  4  5  1  0  0  0  0
  5  6  1  0  0  0  0
  5  7  1  0  0  0  0
  1  8  1  0  0  0  0
  1  9  1  0  0  0  0
  1 10  1  0  0  0  0
  2 11  1  0  0  0  0
  3 12  1  0  0  0  0
  3 13  1  0  0  0  0
  3 14  1  0  0  0  0
  4 15  1  0  0  0  0
  5 16  1  0  0  0  0
  6 17  1  0  0  0  0
  6 18  1  0  0  0  0
  6 19  1  0  0  0  0
  7 20  1  0  0  0  0
  7 21  1  0  0  0  0
  7 22  1  0  0  0  0
M  END
