 xtb: 6.7.1 (edcfbbe)
          04112515553D

 17 16  0     0  0            999 V2000
    1.4984   -1.8270   -0.1815 C   0  0  0  0  0  0  0  0  0  0  0  0
    0.2538   -1.2869    0.2541 O   0  0  0  0  0  0  0  0  0  0  0  0
    0.0130    0.0077   -0.1699 C   0  0  0  0  0  0  0  0  0  0  0  0
    0.9382    0.8589    0.4072 O   0  0  0  0  0  0  0  0  0  0  0  0
    0.8601    2.2075   -0.0458 C   0  0  0  0  0  0  0  0  0  0  0  0
   -1.2608    0.3865    0.2142 O   0  0  0  0  0  0  0  0  0  0  0  0
   -2.3080   -0.3499   -0.4114 C   0  0  0  0  0  0  0  0  0  0  0  0
    2.3288   -1.2537    0.2326 H   0  0  0  0  0  0  0  0  0  0  0  0
    1.5487   -1.8191   -1.2744 H   0  0  0  0  0  0  0  0  0  0  0  0
    1.5117   -2.8457    0.1935 H   0  0  0  0  0  0  0  0  0  0  0  0
    0.1002    0.0599   -1.2913 H   0  0  0  0  0  0  0  0  0  0  0  0
   -0.1032    2.6443    0.2209 H   0  0  0  0  0  0  0  0  0  0  0  0
    0.9998    2.2476   -1.1302 H   0  0  0  0  0  0  0  0  0  0  0  0
    1.6686    2.7242    0.4622 H   0  0  0  0  0  0  0  0  0  0  0  0
   -2.2422   -0.2455   -1.4985 H   0  0  0  0  0  0  0  0  0  0  0  0
   -3.2268    0.0939   -0.0406 H   0  0  0  0  0  0  0  0  0  0  0  0
   -2.2509   -1.4036   -0.1354 H   0  0  0  0  0  0  0  0  0  0  0  0
  1  2  1  0  0  0  0
  2  3  1  0  0  0  0
  3  4  1  0  0  0  0
  4  5  1  0  0  0  0
  3  6  1  0  0  0  0
  6  7  1  0  0  0  0
  1  8  1  0  0  0  0
  1  9  1  0  0  0  0
  1 10  1  0  0  0  0
  3 11  1  0  0  0  0
  5 12  1  0  0  0  0
  5 13  1  0  0  0  0
  5 14  1  0  0  0  0
  7 15  1  0  0  0  0
  7 16  1  0  0  0  0
  7 17  1  0  0  0  0
M  END
