 xtb: 6.7.1 (edcfbbe)
          04112515593D

 20 19  0     0  0            999 V2000
   -3.4788   -0.0935   -0.4077 C   0  0  0  0  0  0  0  0  0  0  0  0
   -2.6014   -0.2332    0.8308 C   0  0  0  0  0  0  0  0  0  0  0  0
   -1.1864    0.3104    0.6332 C   0  0  0  0  0  0  0  0  0  0  0  0
   -0.3762   -0.5084   -0.3837 C   0  0  0  0  0  0  0  0  0  0  0  0
    1.0176    0.0505   -0.4547 C   0  0  0  0  0  0  0  0  0  0  0  0
    1.3898    0.9059   -1.2312 O   0  0  0  0  0  0  0  0  0  0  0  0
    1.8072   -0.4805    0.4723 O   0  0  0  0  0  0  0  0  0  0  0  0
    3.1503    0.0030    0.5559 C   0  0  0  0  0  0  0  0  0  0  0  0
   -4.4966   -0.4008   -0.1814 H   0  0  0  0  0  0  0  0  0  0  0  0
   -3.4991    0.9405   -0.7442 H   0  0  0  0  0  0  0  0  0  0  0  0
   -3.1119   -0.7139   -1.2207 H   0  0  0  0  0  0  0  0  0  0  0  0
   -3.0620    0.3171    1.6535 H   0  0  0  0  0  0  0  0  0  0  0  0
   -2.5465   -1.2834    1.1225 H   0  0  0  0  0  0  0  0  0  0  0  0
   -0.6614    0.2908    1.5907 H   0  0  0  0  0  0  0  0  0  0  0  0
   -1.2354    1.3478    0.2949 H   0  0  0  0  0  0  0  0  0  0  0  0
   -0.8281   -0.4353   -1.3713 H   0  0  0  0  0  0  0  0  0  0  0  0
   -0.3277   -1.5477   -0.0613 H   0  0  0  0  0  0  0  0  0  0  0  0
    3.1497    1.0553    0.8421 H   0  0  0  0  0  0  0  0  0  0  0  0
    3.6447   -0.1009   -0.4106 H   0  0  0  0  0  0  0  0  0  0  0  0
    3.6349   -0.6067    1.3117 H   0  0  0  0  0  0  0  0  0  0  0  0
  1  2  1  0  0  0  0
  2  3  1  0  0  0  0
  3  4  1  0  0  0  0
  4  5  1  0  0  0  0
  5  6  2  0  0  0  0
  5  7  1  0  0  0  0
  7  8  1  0  0  0  0
  1  9  1  0  0  0  0
  1 10  1  0  0  0  0
  1 11  1  0  0  0  0
  2 12  1  0  0  0  0
  2 13  1  0  0  0  0
  3 14  1  0  0  0  0
  3 15  1  0  0  0  0
  4 16  1  0  0  0  0
  4 17  1  0  0  0  0
  8 18  1  0  0  0  0
  8 19  1  0  0  0  0
  8 20  1  0  0  0  0
M  END
