 xtb: 6.7.1 (edcfbbe)
          04112515533D

 20 19  0     0  0            999 V2000
   -2.0213   -1.5645    0.0311 C   0  0  0  0  0  0  0  0  0  0  0  0
   -2.3883   -0.0921    0.1694 C   0  0  0  0  0  0  0  0  0  0  0  0
   -1.4148    0.8106   -0.5992 C   0  0  0  0  0  0  0  0  0  0  0  0
   -0.0416    0.7442    0.0176 C   0  0  0  0  0  0  0  0  0  0  0  0
    0.2270    1.1038    1.1452 O   0  0  0  0  0  0  0  0  0  0  0  0
    0.8510    0.2422   -0.8264 O   0  0  0  0  0  0  0  0  0  0  0  0
    2.2083    0.0893   -0.3790 C   0  0  0  0  0  0  0  0  0  0  0  0
    2.3951   -1.2162    0.3792 C   0  0  0  0  0  0  0  0  0  0  0  0
   -2.7452   -2.1852    0.5525 H   0  0  0  0  0  0  0  0  0  0  0  0
   -2.0039   -1.8566   -1.0161 H   0  0  0  0  0  0  0  0  0  0  0  0
   -1.0382   -1.7549    0.4569 H   0  0  0  0  0  0  0  0  0  0  0  0
   -2.3733    0.1952    1.2226 H   0  0  0  0  0  0  0  0  0  0  0  0
   -3.3947    0.0725   -0.2165 H   0  0  0  0  0  0  0  0  0  0  0  0
   -1.7572    1.8443   -0.5382 H   0  0  0  0  0  0  0  0  0  0  0  0
   -1.3460    0.5047   -1.6422 H   0  0  0  0  0  0  0  0  0  0  0  0
    2.8014    0.1059   -1.2936 H   0  0  0  0  0  0  0  0  0  0  0  0
    2.4639    0.9425    0.2569 H   0  0  0  0  0  0  0  0  0  0  0  0
    3.4415   -1.3338    0.6410 H   0  0  0  0  0  0  0  0  0  0  0  0
    1.8035   -1.2043    1.2922 H   0  0  0  0  0  0  0  0  0  0  0  0
    2.0824   -2.0553   -0.2366 H   0  0  0  0  0  0  0  0  0  0  0  0
  1  2  1  0  0  0  0
  2  3  1  0  0  0  0
  3  4  1  0  0  0  0
  4  5  2  0  0  0  0
  4  6  1  0  0  0  0
  6  7  1  0  0  0  0
  7  8  1  0  0  0  0
  1  9  1  0  0  0  0
  1 10  1  0  0  0  0
  1 11  1  0  0  0  0
  2 12  1  0  0  0  0
  2 13  1  0  0  0  0
  3 14  1  0  0  0  0
  3 15  1  0  0  0  0
  7 16  1  0  0  0  0
  7 17  1  0  0  0  0
  8 18  1  0  0  0  0
  8 19  1  0  0  0  0
  8 20  1  0  0  0  0
M  END
