 xtb: 6.7.1 (edcfbbe)
          04112516443D

 20 19  0     0  0            999 V2000
   -2.4374   -1.2186    0.5412 C   0  0  0  0  0  0  0  0  0  0  0  0
   -2.5464    0.1235   -0.1723 C   0  0  0  0  0  0  0  0  0  0  0  0
   -1.2919    0.4270   -0.9967 C   0  0  0  0  0  0  0  0  0  0  0  0
   -0.0967    0.6478   -0.1052 C   0  0  0  0  0  0  0  0  0  0  0  0
   -0.0703    1.3916    0.8543 O   0  0  0  0  0  0  0  0  0  0  0  0
    0.9455   -0.0727   -0.4948 O   0  0  0  0  0  0  0  0  0  0  0  0
    2.1687    0.0413    0.2524 C   0  0  0  0  0  0  0  0  0  0  0  0
    3.0718   -1.1141   -0.1344 C   0  0  0  0  0  0  0  0  0  0  0  0
   -3.3448   -1.4238    1.1028 H   0  0  0  0  0  0  0  0  0  0  0  0
   -2.2836   -2.0217   -0.1755 H   0  0  0  0  0  0  0  0  0  0  0  0
   -1.5997   -1.2111    1.2362 H   0  0  0  0  0  0  0  0  0  0  0  0
   -2.6814    0.9196    0.5623 H   0  0  0  0  0  0  0  0  0  0  0  0
   -3.4110    0.1169   -0.8363 H   0  0  0  0  0  0  0  0  0  0  0  0
   -1.4445    1.3467   -1.5645 H   0  0  0  0  0  0  0  0  0  0  0  0
   -1.0657   -0.3859   -1.6856 H   0  0  0  0  0  0  0  0  0  0  0  0
    2.6255    1.0069    0.0129 H   0  0  0  0  0  0  0  0  0  0  0  0
    1.9254    0.0327    1.3200 H   0  0  0  0  0  0  0  0  0  0  0  0
    2.5958   -2.0591    0.1107 H   0  0  0  0  0  0  0  0  0  0  0  0
    3.2694   -1.0879   -1.2018 H   0  0  0  0  0  0  0  0  0  0  0  0
    4.0088   -1.0341    0.4067 H   0  0  0  0  0  0  0  0  0  0  0  0
  1  2  1  0  0  0  0
  2  3  1  0  0  0  0
  3  4  1  0  0  0  0
  4  5  2  0  0  0  0
  4  6  1  0  0  0  0
  6  7  1  0  0  0  0
  7  8  1  0  0  0  0
  1  9  1  0  0  0  0
  1 10  1  0  0  0  0
  1 11  1  0  0  0  0
  2 12  1  0  0  0  0
  2 13  1  0  0  0  0
  3 14  1  0  0  0  0
  3 15  1  0  0  0  0
  7 16  1  0  0  0  0
  7 17  1  0  0  0  0
  8 18  1  0  0  0  0
  8 19  1  0  0  0  0
  8 20  1  0  0  0  0
M  END
