16
 xtb: 6.7.1 (edcfbbe)
C            1.85074740456350       -0.76244286407770        0.07383224766493
C            1.11567484667880        0.41228015159616       -0.56891448055265
C            0.01316713884462        1.00193265925602        0.31558591423186
C           -1.09450129197497        0.01814784385992        0.70014203310600
N           -1.81859855423336       -0.59762466468276       -0.42804038366101
H            2.69407120585917       -1.08503291402000       -0.54523269091292
H            2.24414835921744       -0.48687015400210        1.05926301407521
H            1.19323789343644       -1.62781039487531        0.20873031189195
H            1.83525420820905        1.20598334050937       -0.80353968359708
H            0.69065105906386        0.09632968081921       -1.53057133538735
H            0.46360586376294        1.39127591374022        1.23972231942583
H           -0.44226340854992        1.85947383181786       -0.19849556383465
H           -1.82357370759756        0.54188555664881        1.32950057462220
H           -0.68210747404730       -0.78746631888551        1.31808356273549
H           -1.15165088301033       -1.13312917593542       -0.97720216012647
H           -2.11884610161430        0.14973361743150       -1.04971184200798
