 xtb: 6.7.1 (edcfbbe)
          04112516443D

 20 19  0     0  0            999 V2000
   -3.3872   -1.0114    0.2324 C   0  0  0  0  0  0  0  0  0  0  0  0
   -2.0318   -0.3836    0.5308 C   0  0  0  0  0  0  0  0  0  0  0  0
   -1.3048    0.0068   -0.7650 C   0  0  0  0  0  0  0  0  0  0  0  0
    0.0150    0.6418   -0.4220 C   0  0  0  0  0  0  0  0  0  0  0  0
    0.2008    1.8351   -0.2898 O   0  0  0  0  0  0  0  0  0  0  0  0
    0.9632   -0.2644   -0.2366 O   0  0  0  0  0  0  0  0  0  0  0  0
    2.2677    0.1970    0.1543 C   0  0  0  0  0  0  0  0  0  0  0  0
    3.1187   -1.0127    0.4885 C   0  0  0  0  0  0  0  0  0  0  0  0
   -3.8861   -1.2819    1.1589 H   0  0  0  0  0  0  0  0  0  0  0  0
   -4.0199   -0.3129   -0.3091 H   0  0  0  0  0  0  0  0  0  0  0  0
   -3.2667   -1.9076   -0.3706 H   0  0  0  0  0  0  0  0  0  0  0  0
   -1.4119   -1.0896    1.0862 H   0  0  0  0  0  0  0  0  0  0  0  0
   -2.1641    0.5088    1.1463 H   0  0  0  0  0  0  0  0  0  0  0  0
   -1.9044    0.7260   -1.3222 H   0  0  0  0  0  0  0  0  0  0  0  0
   -1.1264   -0.8835   -1.3665 H   0  0  0  0  0  0  0  0  0  0  0  0
    2.6904    0.7726   -0.6757 H   0  0  0  0  0  0  0  0  0  0  0  0
    2.1552    0.8685    1.0118 H   0  0  0  0  0  0  0  0  0  0  0  0
    4.1126   -0.6843    0.7740 H   0  0  0  0  0  0  0  0  0  0  0  0
    2.6744   -1.5664    1.3103 H   0  0  0  0  0  0  0  0  0  0  0  0
    3.1905   -1.6660   -0.3759 H   0  0  0  0  0  0  0  0  0  0  0  0
  1  2  1  0  0  0  0
  2  3  1  0  0  0  0
  3  4  1  0  0  0  0
  4  5  2  0  0  0  0
  4  6  1  0  0  0  0
  6  7  1  0  0  0  0
  7  8  1  0  0  0  0
  1  9  1  0  0  0  0
  1 10  1  0  0  0  0
  1 11  1  0  0  0  0
  2 12  1  0  0  0  0
  2 13  1  0  0  0  0
  3 14  1  0  0  0  0
  3 15  1  0  0  0  0
  7 16  1  0  0  0  0
  7 17  1  0  0  0  0
  8 18  1  0  0  0  0
  8 19  1  0  0  0  0
  8 20  1  0  0  0  0
M  END
