 xtb: 6.7.1 (edcfbbe)
          04112512293D

 16 15  0     0  0            999 V2000
    1.7734   -0.8196    0.3685 C   0  0  0  0  0  0  0  0  0  0  0  0
    1.2155    0.5775    0.1099 C   0  0  0  0  0  0  0  0  0  0  0  0
    0.0368    0.5931   -0.8731 C   0  0  0  0  0  0  0  0  0  0  0  0
   -1.3444    0.5097   -0.2012 C   0  0  0  0  0  0  0  0  0  0  0  0
   -1.6435   -0.7124    0.5266 N   0  0  0  0  0  0  0  0  0  0  0  0
    2.6092   -0.7675    1.0629 H   0  0  0  0  0  0  0  0  0  0  0  0
    1.0220   -1.4805    0.7930 H   0  0  0  0  0  0  0  0  0  0  0  0
    2.1290   -1.2615   -0.5603 H   0  0  0  0  0  0  0  0  0  0  0  0
    0.9037    1.0300    1.0544 H   0  0  0  0  0  0  0  0  0  0  0  0
    2.0214    1.1943   -0.2935 H   0  0  0  0  0  0  0  0  0  0  0  0
    0.0576    1.5222   -1.4457 H   0  0  0  0  0  0  0  0  0  0  0  0
    0.1428   -0.2318   -1.5821 H   0  0  0  0  0  0  0  0  0  0  0  0
   -2.1127    0.6198   -0.9731 H   0  0  0  0  0  0  0  0  0  0  0  0
   -1.4543    1.3420    0.4998 H   0  0  0  0  0  0  0  0  0  0  0  0
   -1.0072   -0.8100    1.3102 H   0  0  0  0  0  0  0  0  0  0  0  0
   -1.5077   -1.5131   -0.0819 H   0  0  0  0  0  0  0  0  0  0  0  0
  1  2  1  0  0  0  0
  2  3  1  0  0  0  0
  3  4  1  0  0  0  0
  4  5  1  0  0  0  0
  1  6  1  0  0  0  0
  1  7  1  0  0  0  0
  1  8  1  0  0  0  0
  2  9  1  0  0  0  0
  2 10  1  0  0  0  0
  3 11  1  0  0  0  0
  3 12  1  0  0  0  0
  4 13  1  0  0  0  0
  4 14  1  0  0  0  0
  5 15  1  0  0  0  0
  5 16  1  0  0  0  0
M  END
