 xtb: 6.7.1 (edcfbbe)
          04112515543D

 31 32  0     0  0            999 V2000
   -3.5442   -1.5631   -0.9702 C   0  0  0  0  0  0  0  0  0  0  0  0
   -3.1741   -0.5967    0.1548 C   0  0  0  0  0  0  0  0  0  0  0  0
   -3.6576   -0.8926    1.0889 H   0  0  0  0  0  0  0  0  0  0  0  0
   -1.6745   -0.5430    0.3726 C   0  0  0  0  0  0  0  0  0  0  0  0
   -1.1284   -0.9934    1.5905 C   0  0  0  0  0  0  0  0  0  0  0  0
    0.2200   -0.9725    1.8041 C   0  0  0  0  0  0  0  0  0  0  0  0
    1.1032   -0.4929    0.8124 C   0  0  0  0  0  0  0  0  0  0  0  0
    2.4939   -0.4560    1.0010 C   0  0  0  0  0  0  0  0  0  0  0  0
    3.3325    0.0216    0.0175 C   0  0  0  0  0  0  0  0  0  0  0  0
    2.7894    0.4822   -1.1989 C   0  0  0  0  0  0  0  0  0  0  0  0
    1.4374    0.4539   -1.4012 C   0  0  0  0  0  0  0  0  0  0  0  0
    0.5570   -0.0299   -0.4141 C   0  0  0  0  0  0  0  0  0  0  0  0
   -0.8384   -0.0670   -0.6040 C   0  0  0  0  0  0  0  0  0  0  0  0
    4.6671    0.0123    0.3054 O   0  0  0  0  0  0  0  0  0  0  0  0
    5.5821    0.4903   -0.6626 C   0  0  0  0  0  0  0  0  0  0  0  0
   -3.6104    0.8161   -0.1638 C   0  0  0  0  0  0  0  0  0  0  0  0
   -3.6375    1.3065   -1.2715 O   0  0  0  0  0  0  0  0  0  0  0  0
   -3.9276    1.4959    0.9270 O   0  0  0  0  0  0  0  0  0  0  0  0
   -3.1679   -1.1919   -1.9196 H   0  0  0  0  0  0  0  0  0  0  0  0
   -3.1109   -2.5395   -0.7742 H   0  0  0  0  0  0  0  0  0  0  0  0
   -4.6244   -1.6603   -1.0433 H   0  0  0  0  0  0  0  0  0  0  0  0
   -1.7925   -1.3612    2.3582 H   0  0  0  0  0  0  0  0  0  0  0  0
    0.6317   -1.3228    2.7387 H   0  0  0  0  0  0  0  0  0  0  0  0
    2.9234   -0.8044    1.9275 H   0  0  0  0  0  0  0  0  0  0  0  0
    3.4347    0.8585   -1.9760 H   0  0  0  0  0  0  0  0  0  0  0  0
    1.0253    0.8079   -2.3347 H   0  0  0  0  0  0  0  0  0  0  0  0
   -1.2446    0.2996   -1.5363 H   0  0  0  0  0  0  0  0  0  0  0  0
    6.5625    0.3810   -0.2043 H   0  0  0  0  0  0  0  0  0  0  0  0
    5.4014    1.5434   -0.8932 H   0  0  0  0  0  0  0  0  0  0  0  0
    5.5377   -0.1048   -1.5784 H   0  0  0  0  0  0  0  0  0  0  0  0
   -4.1651    2.4252    0.7402 H   0  0  0  0  0  0  0  0  0  0  0  0
  1  2  1  0  0  0  0
  2  3  1  0  0  0  0
  2  4  1  0  0  0  0
  4  5  4  0  0  0  0
  5  6  2  0  0  0  0
  6  7  4  0  0  0  0
  7  8  4  0  0  0  0
  8  9  4  0  0  0  0
  9 10  4  0  0  0  0
 10 11  2  0  0  0  0
  7 12  4  0  0  0  0
 11 12  4  0  0  0  0
  4 13  2  0  0  0  0
 12 13  4  0  0  0  0
  9 14  1  0  0  0  0
 14 15  1  0  0  0  0
  2 16  1  0  0  0  0
 16 17  2  0  0  0  0
 16 18  1  0  0  0  0
  1 19  1  0  0  0  0
  1 20  1  0  0  0  0
  1 21  1  0  0  0  0
  5 22  1  0  0  0  0
  6 23  1  0  0  0  0
  8 24  1  0  0  0  0
 10 25  1  0  0  0  0
 11 26  1  0  0  0  0
 13 27  1  0  0  0  0
 15 28  1  0  0  0  0
 15 29  1  0  0  0  0
 15 30  1  0  0  0  0
 18 31  1  0  0  0  0
M  END
