 xtb: 6.7.1 (edcfbbe)
          04112512243D

 22 21  0     0  0            999 V2000
    2.2636    1.1600   -0.0209 C   0  0  0  0  0  0  0  0  0  0  0  0
    1.2432    0.0723    0.3103 C   0  0  0  0  0  0  0  0  0  0  0  0
    1.7994   -1.2959   -0.0934 C   0  0  0  0  0  0  0  0  0  0  0  0
   -0.0087    0.3396   -0.3889 N   0  0  0  0  0  0  0  0  0  0  0  0
   -1.2448    0.0212    0.3168 C   0  0  0  0  0  0  0  0  0  0  0  0
   -1.7368   -1.3759   -0.0709 C   0  0  0  0  0  0  0  0  0  0  0  0
   -2.3155    1.0565   -0.0233 C   0  0  0  0  0  0  0  0  0  0  0  0
    1.9054    2.1359    0.3022 H   0  0  0  0  0  0  0  0  0  0  0  0
    3.2062    0.9581    0.4807 H   0  0  0  0  0  0  0  0  0  0  0  0
    2.4377    1.1867   -1.0937 H   0  0  0  0  0  0  0  0  0  0  0  0
    1.0764    0.0699    1.4053 H   0  0  0  0  0  0  0  0  0  0  0  0
    1.9194   -1.3354   -1.1720 H   0  0  0  0  0  0  0  0  0  0  0  0
    1.1270   -2.0927    0.2083 H   0  0  0  0  0  0  0  0  0  0  0  0
    2.7641   -1.4610    0.3794 H   0  0  0  0  0  0  0  0  0  0  0  0
   -0.0296    1.3104   -0.6766 H   0  0  0  0  0  0  0  0  0  0  0  0
   -1.0761    0.0384    1.4116 H   0  0  0  0  0  0  0  0  0  0  0  0
   -2.6971   -1.5767    0.3969 H   0  0  0  0  0  0  0  0  0  0  0  0
   -1.8459   -1.4360   -1.1497 H   0  0  0  0  0  0  0  0  0  0  0  0
   -1.0327   -2.1380    0.2480 H   0  0  0  0  0  0  0  0  0  0  0  0
   -3.2458    0.8176    0.4850 H   0  0  0  0  0  0  0  0  0  0  0  0
   -2.4948    1.0619   -1.0956 H   0  0  0  0  0  0  0  0  0  0  0  0
   -2.0016    2.0518    0.2863 H   0  0  0  0  0  0  0  0  0  0  0  0
  1  2  1  0  0  0  0
  2  3  1  0  0  0  0
  2  4  1  0  0  0  0
  4  5  1  0  0  0  0
  5  6  1  0  0  0  0
  5  7  1  0  0  0  0
  1  8  1  0  0  0  0
  1  9  1  0  0  0  0
  1 10  1  0  0  0  0
  2 11  1  0  0  0  0
  3 12  1  0  0  0  0
  3 13  1  0  0  0  0
  3 14  1  0  0  0  0
  4 15  1  0  0  0  0
  5 16  1  0  0  0  0
  6 17  1  0  0  0  0
  6 18  1  0  0  0  0
  6 19  1  0  0  0  0
  7 20  1  0  0  0  0
  7 21  1  0  0  0  0
  7 22  1  0  0  0  0
M  END
