 xtb: 6.7.1 (edcfbbe)
          04112516443D

 20 19  0     0  0            999 V2000
   -2.2316   -1.5725    0.5280 C   0  0  0  0  0  0  0  0  0  0  0  0
   -2.3304   -0.2484   -0.2204 C   0  0  0  0  0  0  0  0  0  0  0  0
   -1.4283    0.8440    0.3669 C   0  0  0  0  0  0  0  0  0  0  0  0
    0.0063    0.7948   -0.0947 C   0  0  0  0  0  0  0  0  0  0  0  0
    0.6559    1.7881   -0.3594 O   0  0  0  0  0  0  0  0  0  0  0  0
    0.4916   -0.4345   -0.1816 O   0  0  0  0  0  0  0  0  0  0  0  0
    1.8575   -0.6001   -0.5957 C   0  0  0  0  0  0  0  0  0  0  0  0
    2.8089   -0.4774    0.5847 C   0  0  0  0  0  0  0  0  0  0  0  0
   -2.8944   -2.3060    0.0761 H   0  0  0  0  0  0  0  0  0  0  0  0
   -1.2165   -1.9558    0.4956 H   0  0  0  0  0  0  0  0  0  0  0  0
   -2.5219   -1.4423    1.5679 H   0  0  0  0  0  0  0  0  0  0  0  0
   -3.3610    0.1069   -0.1745 H   0  0  0  0  0  0  0  0  0  0  0  0
   -2.0779   -0.4000   -1.2713 H   0  0  0  0  0  0  0  0  0  0  0  0
   -1.4195    0.7614    1.4564 H   0  0  0  0  0  0  0  0  0  0  0  0
   -1.8007    1.8365    0.1096 H   0  0  0  0  0  0  0  0  0  0  0  0
    1.8934   -1.5985   -1.0327 H   0  0  0  0  0  0  0  0  0  0  0  0
    2.0869    0.1553   -1.3535 H   0  0  0  0  0  0  0  0  0  0  0  0
    3.8231   -0.6703    0.2504 H   0  0  0  0  0  0  0  0  0  0  0  0
    2.7593    0.5272    0.9990 H   0  0  0  0  0  0  0  0  0  0  0  0
    2.5431   -1.1935    1.3576 H   0  0  0  0  0  0  0  0  0  0  0  0
  1  2  1  0  0  0  0
  2  3  1  0  0  0  0
  3  4  1  0  0  0  0
  4  5  2  0  0  0  0
  4  6  1  0  0  0  0
  6  7  1  0  0  0  0
  7  8  1  0  0  0  0
  1  9  1  0  0  0  0
  1 10  1  0  0  0  0
  1 11  1  0  0  0  0
  2 12  1  0  0  0  0
  2 13  1  0  0  0  0
  3 14  1  0  0  0  0
  3 15  1  0  0  0  0
  7 16  1  0  0  0  0
  7 17  1  0  0  0  0
  8 18  1  0  0  0  0
  8 19  1  0  0  0  0
  8 20  1  0  0  0  0
M  END
