20
 xtb: 6.7.1 (edcfbbe)
C           -3.42445602682363       -0.94416559178822        0.38486537199757
C           -1.93815103858217       -0.92947914623090        0.03951138776520
C           -1.36117354307311        0.47755464899347        0.16802623176055
C            0.09099594891686        0.66260753862761       -0.17528723866002
O            0.61141749122014        1.75927273434818       -0.32300339339587
O            0.76079242217058       -0.49585695595565       -0.28742647551498
C            2.19832135919631       -0.41668109731912       -0.55452960263519
C            2.96923549828971       -0.20197945100259        0.72744520846185
H           -3.99062911999771       -0.28655275882302       -0.28389770680874
H           -3.83964970911101       -1.95261614208289        0.29570088648921
H           -3.59149782127741       -0.60086106224892        1.41193820766273
H           -1.78956943501732       -1.29311384174718       -0.98354175636830
H           -1.39773911331675       -1.61323303596984        0.70221381056758
H           -1.47019683364680        0.83923538447846        1.20024812023541
H           -1.91823695957078        1.18641970613772       -0.45552634833556
H            2.43372986551516       -1.38193492514426       -1.00663646665706
H            2.37859640067392        0.37654542414274       -1.28409676629927
H            2.75789412786390       -1.00063676514170        1.44445692176355
H            4.04102972341467       -0.21479893839601        0.50545811089518
H            2.72427738484996        0.76088302861926        1.18368813774568
