 xtb: 6.7.1 (edcfbbe)
          04112515533D

 20 19  0     0  0            999 V2000
   -2.6751    0.0666    1.2123 C   0  0  0  0  0  0  0  0  0  0  0  0
   -2.5227    0.0120   -0.3030 C   0  0  0  0  0  0  0  0  0  0  0  0
   -1.2349   -0.7075   -0.7128 C   0  0  0  0  0  0  0  0  0  0  0  0
   -0.0182    0.0918   -0.3209 C   0  0  0  0  0  0  0  0  0  0  0  0
    0.1333    1.2762   -0.5359 O   0  0  0  0  0  0  0  0  0  0  0  0
    0.8802   -0.6635    0.3003 O   0  0  0  0  0  0  0  0  0  0  0  0
    2.1193   -0.0604    0.7092 C   0  0  0  0  0  0  0  0  0  0  0  0
    3.1377   -0.0776   -0.4204 C   0  0  0  0  0  0  0  0  0  0  0  0
   -3.6001    0.5690    1.4824 H   0  0  0  0  0  0  0  0  0  0  0  0
   -2.6900   -0.9367    1.6315 H   0  0  0  0  0  0  0  0  0  0  0  0
   -1.8460    0.6139    1.6573 H   0  0  0  0  0  0  0  0  0  0  0  0
   -2.4977    1.0264   -0.7056 H   0  0  0  0  0  0  0  0  0  0  0  0
   -3.3742   -0.5109   -0.7389 H   0  0  0  0  0  0  0  0  0  0  0  0
   -1.2099   -0.8192   -1.7985 H   0  0  0  0  0  0  0  0  0  0  0  0
   -1.1674   -1.6921   -0.2516 H   0  0  0  0  0  0  0  0  0  0  0  0
    1.9181    0.9663    1.0303 H   0  0  0  0  0  0  0  0  0  0  0  0
    2.4525   -0.6638    1.5540 H   0  0  0  0  0  0  0  0  0  0  0  0
    2.7860    0.5348   -1.2479 H   0  0  0  0  0  0  0  0  0  0  0  0
    4.0798    0.3234   -0.0614 H   0  0  0  0  0  0  0  0  0  0  0  0
    3.2899   -1.0945   -0.7716 H   0  0  0  0  0  0  0  0  0  0  0  0
  1  2  1  0  0  0  0
  2  3  1  0  0  0  0
  3  4  1  0  0  0  0
  4  5  2  0  0  0  0
  4  6  1  0  0  0  0
  6  7  1  0  0  0  0
  7  8  1  0  0  0  0
  1  9  1  0  0  0  0
  1 10  1  0  0  0  0
  1 11  1  0  0  0  0
  2 12  1  0  0  0  0
  2 13  1  0  0  0  0
  3 14  1  0  0  0  0
  3 15  1  0  0  0  0
  7 16  1  0  0  0  0
  7 17  1  0  0  0  0
  8 18  1  0  0  0  0
  8 19  1  0  0  0  0
  8 20  1  0  0  0  0
M  END
