 xtb: 6.7.1 (edcfbbe)
          04112512433D

 16 15  0     0  0            999 V2000
    2.4308   -0.2971   -0.1262 C   0  0  0  0  0  0  0  0  0  0  0  0
    1.0302    0.2373   -0.4013 C   0  0  0  0  0  0  0  0  0  0  0  0
    0.0491   -0.1691    0.6973 C   0  0  0  0  0  0  0  0  0  0  0  0
   -1.3471    0.4262    0.5107 C   0  0  0  0  0  0  0  0  0  0  0  0
   -2.0528   -0.2179   -0.5906 N   0  0  0  0  0  0  0  0  0  0  0  0
    2.4169   -1.3828   -0.0672 H   0  0  0  0  0  0  0  0  0  0  0  0
    3.1145   -0.0035   -0.9189 H   0  0  0  0  0  0  0  0  0  0  0  0
    2.8086    0.0923    0.8165 H   0  0  0  0  0  0  0  0  0  0  0  0
    1.0651    1.3279   -0.4687 H   0  0  0  0  0  0  0  0  0  0  0  0
    0.6857   -0.1482   -1.3627 H   0  0  0  0  0  0  0  0  0  0  0  0
   -0.0399   -1.2557    0.7233 H   0  0  0  0  0  0  0  0  0  0  0  0
    0.4388    0.1647    1.6611 H   0  0  0  0  0  0  0  0  0  0  0  0
   -1.2561    1.5195    0.3829 H   0  0  0  0  0  0  0  0  0  0  0  0
   -1.9341    0.2456    1.4160 H   0  0  0  0  0  0  0  0  0  0  0  0
   -1.5674   -0.0332   -1.4620 H   0  0  0  0  0  0  0  0  0  0  0  0
   -2.9837    0.1739   -0.6751 H   0  0  0  0  0  0  0  0  0  0  0  0
  1  2  1  0  0  0  0
  2  3  1  0  0  0  0
  3  4  1  0  0  0  0
  4  5  1  0  0  0  0
  1  6  1  0  0  0  0
  1  7  1  0  0  0  0
  1  8  1  0  0  0  0
  2  9  1  0  0  0  0
  2 10  1  0  0  0  0
  3 11  1  0  0  0  0
  3 12  1  0  0  0  0
  4 13  1  0  0  0  0
  4 14  1  0  0  0  0
  5 15  1  0  0  0  0
  5 16  1  0  0  0  0
M  END
