31
 xtb: 6.7.1 (edcfbbe)
C           -3.49945957463545        1.71574866862155       -0.91962451059629
C           -3.15341613774784        0.25365425402391       -0.64401011911208
H           -3.58880127320507       -0.37485856471232       -1.42619109160160
C           -1.66179272565137       -0.05340073396363       -0.58670401538114
C           -1.22716630054104       -1.36074714945135       -0.92810828005632
C            0.09826473364103       -1.71018527064633       -0.86819005436167
C            1.07769422945960       -0.76991251139989       -0.45585114581650
C            2.44735708965552       -1.09294834687326       -0.38301053451263
C            3.36862696007729       -0.14797034592381        0.02637090315128
C            2.95134323622637        1.15841790999599        0.37478351037588
C            1.61738926240376        1.48814070501858        0.30514087038927
C            0.64463591215478        0.54889007318518       -0.10620536776433
C           -0.73126049023838        0.87510588230827       -0.17785091124880
O            4.67716647989341       -0.55569538719491        0.06864134927397
C            5.66249474140101        0.39679087856137        0.49974458908911
C           -3.75218310710688       -0.25605669762143        0.65177289883761
O           -4.26364119504954       -1.35384922998966        0.79092840575664
O           -3.62523667980196        0.61994334221025        1.66946653712216
H           -3.12264649144882        2.38626273547502       -0.14518734164458
H           -3.06897623865683        2.01662285933597       -1.87871620859459
H           -4.58494006634342        1.83880122202349       -0.97393014332929
H           -1.96476589323247       -2.09108606527557       -1.24931084767680
H            0.41441373900411       -2.71281883449626       -1.14146720316270
H            2.78360913195502       -2.09097966697547       -0.64795803000657
H            3.66937366451041        1.90290958569443        0.69499999095466
H            1.29820282479472        2.49153171754536        0.57224655149683
H           -1.03074589520895        1.88163834289256        0.09731511885313
H            5.69866896119166        1.26025098792964       -0.17372455390176
H            6.61533874673494       -0.13248181447774        0.46324877256172
H            5.46833476891185        0.72851098638443        1.52575089328232
H           -3.98810692377125        0.21021689190974        2.47400108682299
