 xtb: 6.7.1 (edcfbbe)
          04112517463D

 20 19  0     0  0            999 V2000
   -3.6818   -0.6717    0.3037 C   0  0  0  0  0  0  0  0  0  0  0  0
   -2.4756    0.1403   -0.1501 C   0  0  0  0  0  0  0  0  0  0  0  0
   -1.1670   -0.5276    0.2626 C   0  0  0  0  0  0  0  0  0  0  0  0
    0.0404    0.2532   -0.1833 C   0  0  0  0  0  0  0  0  0  0  0  0
    0.0183    1.2706   -0.8444 O   0  0  0  0  0  0  0  0  0  0  0  0
    1.1660   -0.3124    0.2375 O   0  0  0  0  0  0  0  0  0  0  0  0
    2.4065    0.3224   -0.1177 C   0  0  0  0  0  0  0  0  0  0  0  0
    3.5391   -0.4783    0.4949 C   0  0  0  0  0  0  0  0  0  0  0  0
   -3.6613   -1.6645   -0.1386 H   0  0  0  0  0  0  0  0  0  0  0  0
   -3.6857   -0.7758    1.3858 H   0  0  0  0  0  0  0  0  0  0  0  0
   -4.6020   -0.1794    0.0019 H   0  0  0  0  0  0  0  0  0  0  0  0
   -2.5155    1.1423    0.2810 H   0  0  0  0  0  0  0  0  0  0  0  0
   -2.4885    0.2565   -1.2353 H   0  0  0  0  0  0  0  0  0  0  0  0
   -1.0916   -1.5277   -0.1696 H   0  0  0  0  0  0  0  0  0  0  0  0
   -1.1111   -0.6394    1.3470 H   0  0  0  0  0  0  0  0  0  0  0  0
    2.4765    0.3570   -1.2099 H   0  0  0  0  0  0  0  0  0  0  0  0
    2.3870    1.3520    0.2544 H   0  0  0  0  0  0  0  0  0  0  0  0
    4.4861   -0.0164    0.2364 H   0  0  0  0  0  0  0  0  0  0  0  0
    3.4345   -0.5036    1.5754 H   0  0  0  0  0  0  0  0  0  0  0  0
    3.5206   -1.4964    0.1176 H   0  0  0  0  0  0  0  0  0  0  0  0
  1  2  1  0  0  0  0
  2  3  1  0  0  0  0
  3  4  1  0  0  0  0
  4  5  2  0  0  0  0
  4  6  1  0  0  0  0
  6  7  1  0  0  0  0
  7  8  1  0  0  0  0
  1  9  1  0  0  0  0
  1 10  1  0  0  0  0
  1 11  1  0  0  0  0
  2 12  1  0  0  0  0
  2 13  1  0  0  0  0
  3 14  1  0  0  0  0
  3 15  1  0  0  0  0
  7 16  1  0  0  0  0
  7 17  1  0  0  0  0
  8 18  1  0  0  0  0
  8 19  1  0  0  0  0
  8 20  1  0  0  0  0
M  END
