 xtb: 6.7.1 (edcfbbe)
          04112515533D

 20 19  0     0  0            999 V2000
   -2.4599   -1.3312   -0.2319 C   0  0  0  0  0  0  0  0  0  0  0  0
   -2.5445    0.1537    0.0997 C   0  0  0  0  0  0  0  0  0  0  0  0
   -1.2793    0.6466    0.8114 C   0  0  0  0  0  0  0  0  0  0  0  0
   -0.0892    0.5662   -0.1099 C   0  0  0  0  0  0  0  0  0  0  0  0
   -0.0048    1.1303   -1.1822 O   0  0  0  0  0  0  0  0  0  0  0  0
    0.8648   -0.2043    0.3915 O   0  0  0  0  0  0  0  0  0  0  0  0
    2.0848   -0.3799   -0.3491 C   0  0  0  0  0  0  0  0  0  0  0  0
    3.2377   -0.4953    0.6314 C   0  0  0  0  0  0  0  0  0  0  0  0
   -3.3790   -1.6667   -0.7047 H   0  0  0  0  0  0  0  0  0  0  0  0
   -1.6346   -1.5216   -0.9158 H   0  0  0  0  0  0  0  0  0  0  0  0
   -2.3000   -1.9160    0.6707 H   0  0  0  0  0  0  0  0  0  0  0  0
   -3.4036    0.3372    0.7453 H   0  0  0  0  0  0  0  0  0  0  0  0
   -2.6747    0.7290   -0.8189 H   0  0  0  0  0  0  0  0  0  0  0  0
   -1.0744    0.0500    1.6993 H   0  0  0  0  0  0  0  0  0  0  0  0
   -1.4077    1.6925    1.0937 H   0  0  0  0  0  0  0  0  0  0  0  0
    1.9799   -1.2921   -0.9444 H   0  0  0  0  0  0  0  0  0  0  0  0
    2.2056    0.4718   -1.0261 H   0  0  0  0  0  0  0  0  0  0  0  0
    3.3316    0.4183    1.2117 H   0  0  0  0  0  0  0  0  0  0  0  0
    3.0640   -1.3253    1.3097 H   0  0  0  0  0  0  0  0  0  0  0  0
    4.1585   -0.6659    0.0833 H   0  0  0  0  0  0  0  0  0  0  0  0
  1  2  1  0  0  0  0
  2  3  1  0  0  0  0
  3  4  1  0  0  0  0
  4  5  2  0  0  0  0
  4  6  1  0  0  0  0
  6  7  1  0  0  0  0
  7  8  1  0  0  0  0
  1  9  1  0  0  0  0
  1 10  1  0  0  0  0
  1 11  1  0  0  0  0
  2 12  1  0  0  0  0
  2 13  1  0  0  0  0
  3 14  1  0  0  0  0
  3 15  1  0  0  0  0
  7 16  1  0  0  0  0
  7 17  1  0  0  0  0
  8 18  1  0  0  0  0
  8 19  1  0  0  0  0
  8 20  1  0  0  0  0
M  END
