20
 xtb: 6.7.1 (edcfbbe)
C           -2.53072707405015       -1.00866929014148        0.93269833123903
C           -2.58146218143802        0.07602502435702       -0.13916808924629
C           -1.30302642133924        0.11458712592084       -0.98058327160064
C           -0.10217647292959        0.50129864316921       -0.16177166052608
O           -0.08309654553969        1.41559786880351        0.64824931864987
O            0.97095989792778       -0.26438837092135       -0.42880412482837
C            2.20014786144410        0.06043954937008        0.29792509453688
C            3.25430229191955       -0.91733678365629       -0.15341592782748
H           -3.45803076353136       -1.03389259881640        1.51312453717113
H           -2.38744058269839       -1.99672340618100        0.48162855409895
H           -1.70467010820562       -0.83659932604095        1.63276362663439
H           -2.74134571247053        1.05695068545029        0.32148810530265
H           -3.42666660813229       -0.10210294575960       -0.81222180575276
H           -1.39188003407148        0.87131096489495       -1.77139873507643
H           -1.12262621779066       -0.84876372441485       -1.46540221687552
H            2.47282185884706        1.09457623936247        0.06723922664022
H            1.99588301128319       -0.02225571771956        1.36964568079389
H            2.95872228592704       -1.94615918251867        0.07120250236353
H            3.44157697582722       -0.82733810293492       -1.22732700007086
H            4.18743401447970       -0.70512309611098        0.37689916485027
