 xtb: 6.7.1 (edcfbbe)
          04112515593D

 20 19  0     0  0            999 V2000
   -3.8223   -0.5424   -0.2754 C   0  0  0  0  0  0  0  0  0  0  0  0
   -2.6874    0.1020    0.5117 C   0  0  0  0  0  0  0  0  0  0  0  0
   -1.3354   -0.1463   -0.1523 C   0  0  0  0  0  0  0  0  0  0  0  0
   -0.1882    0.4863    0.6435 C   0  0  0  0  0  0  0  0  0  0  0  0
    1.1133    0.3263   -0.0953 C   0  0  0  0  0  0  0  0  0  0  0  0
    1.3295    0.7233   -1.2212 O   0  0  0  0  0  0  0  0  0  0  0  0
    2.0167   -0.3247    0.6291 O   0  0  0  0  0  0  0  0  0  0  0  0
    3.3003   -0.5527    0.0401 C   0  0  0  0  0  0  0  0  0  0  0  0
   -3.8620   -0.1389   -1.2845 H   0  0  0  0  0  0  0  0  0  0  0  0
   -3.6768   -1.6180   -0.3430 H   0  0  0  0  0  0  0  0  0  0  0  0
   -4.7767   -0.3538    0.2091 H   0  0  0  0  0  0  0  0  0  0  0  0
   -2.8612    1.1772    0.5847 H   0  0  0  0  0  0  0  0  0  0  0  0
   -2.6711   -0.3039    1.5248 H   0  0  0  0  0  0  0  0  0  0  0  0
   -1.3341    0.2730   -1.1607 H   0  0  0  0  0  0  0  0  0  0  0  0
   -1.1642   -1.2215   -0.2385 H   0  0  0  0  0  0  0  0  0  0  0  0
   -0.0938    0.0286    1.6273 H   0  0  0  0  0  0  0  0  0  0  0  0
   -0.3800    1.5549    0.7566 H   0  0  0  0  0  0  0  0  0  0  0  0
    3.7932    0.4000   -0.1564 H   0  0  0  0  0  0  0  0  0  0  0  0
    3.1879   -1.0943   -0.8997 H   0  0  0  0  0  0  0  0  0  0  0  0
    3.8561   -1.1374    0.7660 H   0  0  0  0  0  0  0  0  0  0  0  0
  1  2  1  0  0  0  0
  2  3  1  0  0  0  0
  3  4  1  0  0  0  0
  4  5  1  0  0  0  0
  5  6  2  0  0  0  0
  5  7  1  0  0  0  0
  7  8  1  0  0  0  0
  1  9  1  0  0  0  0
  1 10  1  0  0  0  0
  1 11  1  0  0  0  0
  2 12  1  0  0  0  0
  2 13  1  0  0  0  0
  3 14  1  0  0  0  0
  3 15  1  0  0  0  0
  4 16  1  0  0  0  0
  4 17  1  0  0  0  0
  8 18  1  0  0  0  0
  8 19  1  0  0  0  0
  8 20  1  0  0  0  0
M  END
