20
 xtb: 6.7.1 (edcfbbe)
C           -2.41894565019983       -1.15599972809306       -0.51062876784706
C           -2.08187144012688       -0.45390436713236        0.80063056246370
C           -1.41406991064729        0.91470983348209        0.58138418562119
C           -0.15606020430901        0.79522425315294       -0.23112177963035
O           -0.00309873246888        1.23430763771390       -1.36101896966189
O            0.79981599363162        0.11519491794132        0.42658228253568
C            2.05399273442738       -0.11138057027210       -0.29142646599492
C            2.95745583460520       -0.89340754284306        0.62706319356699
H           -3.06376480375266       -0.53000760646342       -1.13686350801584
H           -1.51399951197347       -1.38494530886782       -1.08548761792547
H           -2.94027855677001       -2.09990831359617       -0.32532798932911
H           -1.42457127103995       -1.08511398259970        1.40784139921861
H           -2.99409592260024       -0.28881587998645        1.38329369822599
H           -1.16375283750300        1.36479267642432        1.54806004102955
H           -2.08973905228229        1.58614158970511        0.04589959968182
H            1.82841256260068       -0.66160070271770       -1.20991201570969
H            2.48012753826471        0.86094925702217       -0.55584516887038
H            3.17466371277245       -0.33111020408914        1.53964267111697
H            2.50720138392624       -1.85240490059532        0.89867385908078
H            3.90242025881289       -1.09136575947660        0.11287328194018
