13
 xtb: 6.7.1 (edcfbbe)
C           -1.95142998911333        0.78685361367765        0.49292412661328
C           -1.51440878544401       -0.53559523478930       -0.12313024678106
C           -0.24477169449478       -0.43144469454977       -0.96551450647409
N            0.89750082161849        0.00465538784899       -0.08932991965496
O            1.22965573548618        1.18569774686804       -0.10972863586873
O            1.40568140489738       -0.83638840873758        0.64554505880826
H           -1.22632383842357        1.15395763740547        1.22668865800995
H           -2.07824834136682        1.55696528570057       -0.27491992433246
H           -2.90704030219556        0.66282582921057        1.01060822314256
H           -2.28410635394448       -0.90878625964407       -0.80725392758292
H           -1.37093508468170       -1.29996121834492        0.64792076863625
H            0.04174673285195       -1.40109767633850       -1.37644868679580
H           -0.33598151267909        0.32033443650208       -1.75057303035040
