 xtb: 6.7.1 (edcfbbe)
          04112516443D

 20 19  0     0  0            999 V2000
   -3.3680   -1.0671    0.2707 C   0  0  0  0  0  0  0  0  0  0  0  0
   -2.0083   -0.4575    0.5867 C   0  0  0  0  0  0  0  0  0  0  0  0
   -1.3263    0.0660   -0.6865 C   0  0  0  0  0  0  0  0  0  0  0  0
    0.0023    0.6716   -0.3251 C   0  0  0  0  0  0  0  0  0  0  0  0
    0.1949    1.8508   -0.1055 O   0  0  0  0  0  0  0  0  0  0  0  0
    0.9517   -0.2474   -0.2318 O   0  0  0  0  0  0  0  0  0  0  0  0
    2.2657    0.1814    0.1639 C   0  0  0  0  0  0  0  0  0  0  0  0
    3.1404   -1.0484    0.3117 C   0  0  0  0  0  0  0  0  0  0  0  0
   -4.0220   -0.3262   -0.1818 H   0  0  0  0  0  0  0  0  0  0  0  0
   -3.2600   -1.9002   -0.4188 H   0  0  0  0  0  0  0  0  0  0  0  0
   -3.8358   -1.4300    1.1817 H   0  0  0  0  0  0  0  0  0  0  0  0
   -1.3654   -1.2082    1.0497 H   0  0  0  0  0  0  0  0  0  0  0  0
   -2.1272    0.3685    1.2913 H   0  0  0  0  0  0  0  0  0  0  0  0
   -1.9460    0.8330   -1.1499 H   0  0  0  0  0  0  0  0  0  0  0  0
   -1.1649   -0.7590   -1.3792 H   0  0  0  0  0  0  0  0  0  0  0  0
    2.6498    0.8635   -0.6017 H   0  0  0  0  0  0  0  0  0  0  0  0
    2.1801    0.7381    1.1030 H   0  0  0  0  0  0  0  0  0  0  0  0
    4.1401   -0.7448    0.6040 H   0  0  0  0  0  0  0  0  0  0  0  0
    2.7300   -1.7088    1.0698 H   0  0  0  0  0  0  0  0  0  0  0  0
    3.1888   -1.5848   -0.6312 H   0  0  0  0  0  0  0  0  0  0  0  0
  1  2  1  0  0  0  0
  2  3  1  0  0  0  0
  3  4  1  0  0  0  0
  4  5  2  0  0  0  0
  4  6  1  0  0  0  0
  6  7  1  0  0  0  0
  7  8  1  0  0  0  0
  1  9  1  0  0  0  0
  1 10  1  0  0  0  0
  1 11  1  0  0  0  0
  2 12  1  0  0  0  0
  2 13  1  0  0  0  0
  3 14  1  0  0  0  0
  3 15  1  0  0  0  0
  7 16  1  0  0  0  0
  7 17  1  0  0  0  0
  8 18  1  0  0  0  0
  8 19  1  0  0  0  0
  8 20  1  0  0  0  0
M  END
