 xtb: 6.7.1 (edcfbbe)
          04112516443D

 20 19  0     0  0            999 V2000
   -3.4452   -0.9657    0.3299 C   0  0  0  0  0  0  0  0  0  0  0  0
   -2.0927   -0.6656   -0.3033 C   0  0  0  0  0  0  0  0  0  0  0  0
   -1.3068    0.3599    0.5278 C   0  0  0  0  0  0  0  0  0  0  0  0
   -0.0012    0.6561   -0.1580 C   0  0  0  0  0  0  0  0  0  0  0  0
    0.1448    1.4566   -1.0602 O   0  0  0  0  0  0  0  0  0  0  0  0
    0.9845   -0.0932    0.3126 O   0  0  0  0  0  0  0  0  0  0  0  0
    2.2842    0.0512   -0.2858 C   0  0  0  0  0  0  0  0  0  0  0  0
    3.2716   -0.7695    0.5208 C   0  0  0  0  0  0  0  0  0  0  0  0
   -3.9851   -1.6938   -0.2691 H   0  0  0  0  0  0  0  0  0  0  0  0
   -3.3155   -1.3686    1.3309 H   0  0  0  0  0  0  0  0  0  0  0  0
   -4.0439   -0.0610    0.3960 H   0  0  0  0  0  0  0  0  0  0  0  0
   -2.2333   -0.2695   -1.3112 H   0  0  0  0  0  0  0  0  0  0  0  0
   -1.5088   -1.5848   -0.3796 H   0  0  0  0  0  0  0  0  0  0  0  0
   -1.1062   -0.0415    1.5200 H   0  0  0  0  0  0  0  0  0  0  0  0
   -1.8802    1.2838    0.6014 H   0  0  0  0  0  0  0  0  0  0  0  0
    2.2243   -0.2913   -1.3240 H   0  0  0  0  0  0  0  0  0  0  0  0
    2.5450    1.1146   -0.2926 H   0  0  0  0  0  0  0  0  0  0  0  0
    2.9718   -1.8132    0.5239 H   0  0  0  0  0  0  0  0  0  0  0  0
    4.2581   -0.6806    0.0780 H   0  0  0  0  0  0  0  0  0  0  0  0
    3.3047   -0.4114    1.5455 H   0  0  0  0  0  0  0  0  0  0  0  0
  1  2  1  0  0  0  0
  2  3  1  0  0  0  0
  3  4  1  0  0  0  0
  4  5  2  0  0  0  0
  4  6  1  0  0  0  0
  6  7  1  0  0  0  0
  7  8  1  0  0  0  0
  1  9  1  0  0  0  0
  1 10  1  0  0  0  0
  1 11  1  0  0  0  0
  2 12  1  0  0  0  0
  2 13  1  0  0  0  0
  3 14  1  0  0  0  0
  3 15  1  0  0  0  0
  7 16  1  0  0  0  0
  7 17  1  0  0  0  0
  8 18  1  0  0  0  0
  8 19  1  0  0  0  0
  8 20  1  0  0  0  0
M  END
