 xtb: 6.7.1 (edcfbbe)
          04112512283D

 13 12  0     0  0            999 V2000
    2.3214    0.3005   -0.0028 C   0  0  0  0  0  0  0  0  0  0  0  0
    1.1620   -0.1950    0.3867 C   0  0  0  0  0  0  0  0  0  0  0  0
   -0.0001   -0.4584   -0.5246 C   0  0  0  0  0  0  0  0  0  0  0  0
   -1.1622    0.4096   -0.1417 C   0  0  0  0  0  0  0  0  0  0  0  0
   -2.3214   -0.0426    0.2979 C   0  0  0  0  0  0  0  0  0  0  0  0
    3.1265    0.4805    0.6889 H   0  0  0  0  0  0  0  0  0  0  0  0
    2.5167    0.5410   -1.0352 H   0  0  0  0  0  0  0  0  0  0  0  0
    0.9856   -0.4249    1.4295 H   0  0  0  0  0  0  0  0  0  0  0  0
   -0.2906   -1.5089   -0.4499 H   0  0  0  0  0  0  0  0  0  0  0  0
    0.2903   -0.2440   -1.5557 H   0  0  0  0  0  0  0  0  0  0  0  0
   -0.9859    1.4737   -0.2307 H   0  0  0  0  0  0  0  0  0  0  0  0
   -3.1264    0.6189    0.5688 H   0  0  0  0  0  0  0  0  0  0  0  0
   -2.5166   -1.0978    0.3987 H   0  0  0  0  0  0  0  0  0  0  0  0
  1  2  2  0  0  0  0
  2  3  1  0  0  0  0
  3  4  1  0  0  0  0
  4  5  2  0  0  0  0
  1  6  1  0  0  0  0
  1  7  1  0  0  0  0
  2  8  1  0  0  0  0
  3  9  1  0  0  0  0
  3 10  1  0  0  0  0
  4 11  1  0  0  0  0
  5 12  1  0  0  0  0
  5 13  1  0  0  0  0
M  END
