 xtb: 6.7.1 (edcfbbe)
          04112515533D

 20 19  0     0  0            999 V2000
   -3.4010   -1.0288    0.1891 C   0  0  0  0  0  0  0  0  0  0  0  0
   -2.0429   -0.4417    0.5511 C   0  0  0  0  0  0  0  0  0  0  0  0
   -1.2904    0.0298   -0.7020 C   0  0  0  0  0  0  0  0  0  0  0  0
    0.0185    0.6501   -0.2931 C   0  0  0  0  0  0  0  0  0  0  0  0
    0.1384    1.7669    0.1695 O   0  0  0  0  0  0  0  0  0  0  0  0
    1.0290   -0.1885   -0.4640 O   0  0  0  0  0  0  0  0  0  0  0  0
    2.3520    0.2126   -0.0658 C   0  0  0  0  0  0  0  0  0  0  0  0
    3.0585   -0.9764    0.5608 C   0  0  0  0  0  0  0  0  0  0  0  0
   -3.9164   -1.3595    1.0865 H   0  0  0  0  0  0  0  0  0  0  0  0
   -4.0173   -0.2846   -0.3086 H   0  0  0  0  0  0  0  0  0  0  0  0
   -3.2821   -1.8804   -0.4757 H   0  0  0  0  0  0  0  0  0  0  0  0
   -1.4424   -1.1937    1.0664 H   0  0  0  0  0  0  0  0  0  0  0  0
   -2.1709    0.4080    1.2248 H   0  0  0  0  0  0  0  0  0  0  0  0
   -1.8858    0.7830   -1.2181 H   0  0  0  0  0  0  0  0  0  0  0  0
   -1.0949   -0.8137   -1.3623 H   0  0  0  0  0  0  0  0  0  0  0  0
    2.8729    0.5502   -0.9665 H   0  0  0  0  0  0  0  0  0  0  0  0
    2.2652    1.0517    0.6316 H   0  0  0  0  0  0  0  0  0  0  0  0
    4.0747   -0.6947    0.8162 H   0  0  0  0  0  0  0  0  0  0  0  0
    2.5398   -1.2930    1.4614 H   0  0  0  0  0  0  0  0  0  0  0  0
    3.0807   -1.8047   -0.1411 H   0  0  0  0  0  0  0  0  0  0  0  0
  1  2  1  0  0  0  0
  2  3  1  0  0  0  0
  3  4  1  0  0  0  0
  4  5  2  0  0  0  0
  4  6  1  0  0  0  0
  6  7  1  0  0  0  0
  7  8  1  0  0  0  0
  1  9  1  0  0  0  0
  1 10  1  0  0  0  0
  1 11  1  0  0  0  0
  2 12  1  0  0  0  0
  2 13  1  0  0  0  0
  3 14  1  0  0  0  0
  3 15  1  0  0  0  0
  7 16  1  0  0  0  0
  7 17  1  0  0  0  0
  8 18  1  0  0  0  0
  8 19  1  0  0  0  0
  8 20  1  0  0  0  0
M  END
