 xtb: 6.7.1 (edcfbbe)
          04112512293D

 16 15  0     0  0            999 V2000
    2.4333   -0.2526    0.1397 C   0  0  0  0  0  0  0  0  0  0  0  0
    1.0144    0.2345    0.4096 C   0  0  0  0  0  0  0  0  0  0  0  0
    0.0625   -0.1421   -0.7245 C   0  0  0  0  0  0  0  0  0  0  0  0
   -1.3628    0.3945   -0.5169 C   0  0  0  0  0  0  0  0  0  0  0  0
   -2.0937   -0.1694    0.6073 N   0  0  0  0  0  0  0  0  0  0  0  0
    2.8186    0.1886   -0.7766 H   0  0  0  0  0  0  0  0  0  0  0  0
    3.0936    0.0221    0.9586 H   0  0  0  0  0  0  0  0  0  0  0  0
    2.4508   -1.3349    0.0317 H   0  0  0  0  0  0  0  0  0  0  0  0
    0.6630   -0.2010    1.3483 H   0  0  0  0  0  0  0  0  0  0  0  0
    1.0186    1.3208    0.5274 H   0  0  0  0  0  0  0  0  0  0  0  0
    0.4476    0.2613   -1.6630 H   0  0  0  0  0  0  0  0  0  0  0  0
    0.0251   -1.2309   -0.8215 H   0  0  0  0  0  0  0  0  0  0  0  0
   -1.9517    0.1936   -1.4167 H   0  0  0  0  0  0  0  0  0  0  0  0
   -1.3258    1.4780   -0.3742 H   0  0  0  0  0  0  0  0  0  0  0  0
   -1.6118    0.0462    1.4733 H   0  0  0  0  0  0  0  0  0  0  0  0
   -2.1222   -1.1801    0.5198 H   0  0  0  0  0  0  0  0  0  0  0  0
  1  2  1  0  0  0  0
  2  3  1  0  0  0  0
  3  4  1  0  0  0  0
  4  5  1  0  0  0  0
  1  6  1  0  0  0  0
  1  7  1  0  0  0  0
  1  8  1  0  0  0  0
  2  9  1  0  0  0  0
  2 10  1  0  0  0  0
  3 11  1  0  0  0  0
  3 12  1  0  0  0  0
  4 13  1  0  0  0  0
  4 14  1  0  0  0  0
  5 15  1  0  0  0  0
  5 16  1  0  0  0  0
M  END
