31
CONF12
C -3.6216992240 0.0231959702 1.8880096352
C -3.0612511592 0.5241935480 0.5594612100
H -3.1674303604 1.6151985153 0.5030108955
C -1.5885340631 0.1938102654 0.3866238420
C -1.1778636702 -1.1600884677 0.3123008487
C 0.1480634564 -1.4896049098 0.1692578081
C 1.1436732532 -0.4837141751 0.0939588253
C 2.5168815753 -0.8033732986 -0.0486119588
C 3.4497884765 0.2097237101 -0.1184850698
C 3.0503836003 1.5679892104 -0.0499252529
C 1.7270210954 1.8918900485 0.0873782613
C 0.7332604380 0.8831048990 0.1637016756
C -0.6398692589 1.1901024332 0.3055060800
O 4.7986255771 0.0211942148 -0.2555030280
C 5.2660053912 -1.3350321582 -0.3209430746
C -3.8425828960 -0.0371564098 -0.6162892080
O -4.6982738208 -0.8966712321 -0.5430060301
O -3.5332919644 0.4691068219 -1.8352704904
H -3.0611746579 0.4738825044 2.7111683513
H -4.6751370260 0.2975028762 1.9920345933
H -3.5379600959 -1.0640772129 1.9661749052
H -1.9252384800 -1.9474260208 0.3664475758
H 0.4502510934 -2.5314304732 0.1106266374
H 2.8022974896 -1.8475181131 -0.0994728022
H 3.8137992182 2.3372664783 -0.1084887853
H 1.4241594616 2.9336744062 0.1400343045
H -0.9400601219 2.2339211067 0.3558400299
H 5.0139840413 -1.8800145671 0.5959062818
H 6.3497212002 -1.2695675538 -0.4224066681
H 4.8451497012 -1.8525580647 -1.1904058901
H -2.8358643705 1.1414980414 -1.7594590684
31
CONF1
C -3.6302010287 0.0258141781 1.8929616154
C -3.0659324067 0.5130107593 0.5605637978
H -3.1699480777 1.6008677616 0.4857805246
C -1.5925996806 0.1794232132 0.3962370714
C -1.1748435526 -1.1736165660 0.3683147384
C 0.1532546361 -1.5014001957 0.2361474293
C 1.1437467081 -0.4941685061 0.1264412095
C 2.5190018299 -0.8109066845 -0.0057624376
C 3.4462197825 0.2041451977 -0.1111308929
C 3.0392552013 1.5618320408 -0.0891614340
C 1.7142889980 1.8829280418 0.0384359974
C 0.7258860098 0.8719616712 0.1500563271
C -0.6484671355 1.1762366500 0.2823061417
O 4.7964039706 0.0186971958 -0.2429655579
C 5.2703153777 -1.3367078364 -0.2671621905
C -3.8316518073 -0.0760877197 -0.6058588145
O -4.5960814806 -1.0214520005 -0.5459459006
O -3.5579843619 0.5664261367 -1.7633663394
H -3.5351066006 -1.0589214064 1.9895309706
H -3.0830786770 0.4955562944 2.7143528120
H -4.6882386485 0.2880286006 1.9837841085
H -1.9168250051 -1.9633734550 0.4505935939
H 0.4603928872 -2.5432225242 0.2139805593
H 2.8103031520 -1.8545864587 -0.0208145135
H 3.7981713271 2.3329733339 -0.1753959248
H 1.4058100431 2.9242682501 0.0551238628
H -0.9534661507 2.2196576105 0.2961587998
H 5.0248569059 -1.8533465562 0.6676764995
H 6.3532564382 -1.2693067445 -0.3755236790
H 4.8480657729 -1.8834932373 -1.1178310681
H -4.0557764764 0.1353570200 -2.4797218560
31
CONF2
C -3.5639508007 -0.2565009682 -1.8357447016
C -3.1462439856 -0.5271565283 -0.3928670663
H -3.5594548333 -1.4853416021 -0.0602271220
C -1.6357301815 -0.5895230149 -0.2209278502
C -1.0197832840 -1.7809540588 0.2246390050
C 0.3454495133 -1.8608190677 0.3739544498
C 1.1729397279 -0.7471396978 0.0932571477
C 2.5818511450 -0.8066656928 0.2407625222
C 3.3453916232 0.3052182651 -0.0422903299
C 2.7379308734 1.5102145082 -0.4784117305
C 1.3793005840 1.5831518898 -0.6268270528
C 0.5532719005 0.4628981814 -0.3496843939
C -0.8502715678 0.5110349970 -0.4974477261
O 4.7093224393 0.3633937824 0.0626804992
C 5.3829859807 -0.8319707865 0.4865134621
C -3.6873615971 0.5281718986 0.5471702264
O -4.1221227674 1.6166509066 0.2180059344
O -3.6147188352 0.1340638530 1.8386350748
H -3.1731836999 -1.0463389892 -2.4825229691
H -4.6539987512 -0.2396062104 -1.9263254728
H -3.1732801259 0.7023633199 -2.1866041941
H -1.6403186778 -2.6443921102 0.4468787472
H 0.8054782536 -2.7851588788 0.7119326445
H 3.0285375706 -1.7350262194 0.5768049998
H 3.3729810757 2.3645195157 -0.6902814561
H 0.9165510041 2.5068039150 -0.9624584688
H -1.3040446078 1.4405200917 -0.8339768000
H 5.0638250124 -1.1249047788 1.4931023061
H 6.4451097221 -0.5852763623 0.4957980171
H 5.2012188789 -1.6529581051 -0.2162801103
H -3.9392036531 0.8591476933 2.4005279677
31
CONF13
C -3.5736607820 -1.1142477716 -1.4368160976
C -3.1459836274 -0.6604836808 -0.0431592849
H -3.5487066782 -1.3532376104 0.7064783903
C -1.6330738479 -0.6316783627 0.1159492467
C -0.9929488098 -1.5453669902 0.9838010817
C 0.3762962998 -1.5543200200 1.1181501593
C 1.1825373731 -0.6422988443 0.3959086776
C 2.5951411489 -0.6360039012 0.5181307625
C 3.3383585329 0.2732159318 -0.2033710316
C 2.7061196233 1.2057884670 -1.0648786140
C 1.3437427663 1.2113663468 -1.1946615318
C 0.5380076368 0.2910207049 -0.4749036814
C -0.8684544047 0.2713664939 -0.5950316123
O 4.7032859055 0.3696652511 -0.1671356839
C 5.4007678175 -0.5601189510 0.6761951646
C -3.7096031581 0.7083203733 0.2906665629
O -4.2508207748 1.4545663578 -0.5007284327
O -3.5783058493 1.1122610464 1.5782575609
H -3.1769094837 -2.1141124145 -1.6309130322
H -4.6637900615 -1.1495437455 -1.5166338447
H -3.1898904673 -0.4348224302 -2.2025319785
H -1.5976510493 -2.2521744827 1.5448858718
H 0.8559386473 -2.2656373326 1.7845254529
H 3.0596022003 -1.3543341325 1.1832799064
H 3.3258143746 1.9075030504 -1.6140001971
H 0.8627160601 1.9254158657 -1.8568200644
H -1.3427648808 0.9873696589 -1.2627417624
H 5.1092888186 -0.4321635472 1.7247941560
H 6.4599398902 -0.3289658977 0.5589871575
H 5.2112667141 -1.5920445674 0.3595775862
H -3.1393148422 0.4265739372 2.1075675092
31
CONF6
C -3.6645305392 0.1782030087 1.8889629656
C -3.0667793537 0.5912992349 0.5457222793
H -3.1011827892 1.6811952392 0.4419432949
C -1.6183862055 0.1580220264 0.3953323793
C -1.2925751437 -1.2232272340 0.4021743178
C 0.0078251974 -1.6443588537 0.2814519606
C 1.0661252535 -0.7076546234 0.1491330820
C 2.4119626417 -1.1070368749 0.0269200835
C 3.4133377336 -0.1636919474 -0.1013593956
C 3.1031505392 1.2167354460 -0.1126701047
C 1.7931771048 1.6209454236 0.0061836215
C 0.7414221310 0.6866914279 0.1393462500
C -0.6115414322 1.0858738858 0.2607329572
O 4.6912278010 -0.6483369879 -0.2155344337
C 5.7599853225 0.3038599002 -0.3378934417
C -3.8655823113 0.0227075785 -0.6083311553
O -4.6777591504 -0.8804116698 -0.5316224993
O -3.5584052354 0.6279415271 -1.7784846084
H -3.0856609196 0.6297098604 2.6988213940
H -4.7013976825 0.5166752108 1.9711415767
H -3.6459594067 -0.9075637005 2.0141254329
H -2.0878023972 -1.9572254678 0.5018468179
H 0.2437062092 -2.7047030690 0.2851937850
H 2.6667302264 -2.1627120481 0.0332897756
H 3.8842894009 1.9597545870 -0.2147135830
H 1.5554285651 2.6808498254 -0.0025413982
H -0.8457451376 2.1474303616 0.2487402727
H 5.8139540968 0.9518975631 0.5439241349
H 5.6469851436 0.9101597127 -1.2433840684
H 6.6725043190 -0.2891044931 -0.4091817963
H -4.0775150962 0.2077264521 -2.4861812788
31
CONF9
C -3.4917863947 1.9654597409 0.3564913845
C -3.1651495196 0.6152904960 -0.2743672552
H -3.6527729810 0.5345916724 -1.2511768030
C -1.6740821893 0.3820010979 -0.4832463713
C -1.2025483687 -0.0673856701 -1.7416747085
C 0.1329350792 -0.3020899521 -1.9584538137
C 1.0817814146 -0.1047912562 -0.9228238892
C 2.4596641690 -0.3340691654 -1.1113224248
C 3.3510699924 -0.1307633390 -0.0756892861
C 2.8950605992 0.3117359108 1.1890443710
C 1.5530801390 0.5397409490 1.3872941039
C 0.6096695433 0.3426173135 0.3530316622
C -0.7732821755 0.5725185045 0.5421327492
O 4.6705091056 -0.3809724697 -0.3536824327
C 5.6267340107 -0.1828683898 0.7005434034
C -3.6835784499 -0.5279993468 0.5728227365
O -3.9290240144 -0.4699362241 1.7641945191
O -3.8169722969 -1.6659286069 -0.1446476369
H -4.5741753212 2.0871855673 0.4575224907
H -3.0437185007 2.0657268642 1.3478115425
H -3.1097779149 2.7679530593 -0.2799424978
H -1.9162435526 -0.2230758130 -2.5456823343
H 0.4794513393 -0.6402512284 -2.9308902612
H 2.8252107997 -0.6735998879 -2.0759543314
H 3.5901212942 0.4740320251 2.0034203000
H 1.2040885695 0.8804742590 2.3579952527
H -1.1100844105 0.9034384409 1.5209914681
H 5.6383711153 0.8614936313 1.0315507192
H 6.5948211500 -0.4376988399 0.2678812921
H 5.4209132766 -0.8439648359 1.5497999986
H -4.1068918659 -2.3766203562 0.4540049245
31
CONF5
C -3.5546192129 1.6132015521 -0.9815656849
C -3.1248933949 0.1795637793 -0.6756521120
H -3.4976088706 -0.4852892263 -1.4602124673
C -1.6190374944 -0.0320755816 -0.5729638132
C -1.0978618665 -1.3190346894 -0.8548687109
C 0.2468829405 -1.5816071755 -0.7533025938
C 1.1550875477 -0.5691692955 -0.3575671656
C 2.5465362687 -0.8149720283 -0.2479186972
C 3.3906170360 0.2033085182 0.1416838233
C 2.8822130019 1.4946846741 0.4314021838
C 1.5404749963 1.7468584018 0.3279907790
C 0.6345108032 0.7293217724 -0.0677459494
C -0.7548854168 0.9672175673 -0.1795589814
O 4.7464990166 0.0822080442 0.2842878830
C 5.3200892784 -1.2043441972 0.0089796301
C -3.7278760365 -0.3487857659 0.6103635337
O -4.1847230900 -1.4704653531 0.7497475081
O -3.6697972202 0.5417968984 1.6217379639
H -4.6430797820 1.6649686830 -1.0732025605
H -3.2487299688 2.3142862781 -0.2029660783
H -3.1123865738 1.9320630721 -1.9291822008
H -1.7804406517 -2.1062513011 -1.1633716026
H 0.6307578038 -2.5720203646 -0.9812297145
H 2.9156201443 -1.8086605676 -0.4734071018
H 3.5782474117 2.2705140441 0.7342657609
H 1.1541470851 2.7375259734 0.5502214094
H -1.1210719051 1.9632422828 0.0492600604
H 4.9164092294 -1.9657710932 0.6861564610
H 6.3915952827 -1.0935998179 0.1786606355
H 5.1405092457 -1.4984813407 -1.0314528947
H -4.0295829797 0.1209058535 2.4216507475
