 xtb: 6.7.1 (edcfbbe)
          04112515563D

 33 35  0     0  0            999 V2000
   -4.6000   -1.1709    0.0925 C   0  0  0  0  0  0  0  0  0  0  0  0
   -3.8149   -2.3039   -0.0707 C   0  0  0  0  0  0  0  0  0  0  0  0
   -2.4407   -2.1863   -0.1666 C   0  0  0  0  0  0  0  0  0  0  0  0
   -1.8260   -0.9375   -0.0997 C   0  0  0  0  0  0  0  0  0  0  0  0
   -2.6192    0.2031    0.0669 C   0  0  0  0  0  0  0  0  0  0  0  0
   -4.0040    0.0740    0.1606 C   0  0  0  0  0  0  0  0  0  0  0  0
   -2.0089    1.5356    0.1437 C   0  0  0  0  0  0  0  0  0  0  0  0
   -2.6916    2.5480    0.2864 O   0  0  0  0  0  0  0  0  0  0  0  0
   -0.5398    1.6015    0.0450 C   0  0  0  0  0  0  0  0  0  0  0  0
    0.0339    2.8574    0.1374 C   0  0  0  0  0  0  0  0  0  0  0  0
    1.4152    3.0079    0.0474 C   0  0  0  0  0  0  0  0  0  0  0  0
    2.2167    1.9131   -0.1297 C   0  0  0  0  0  0  0  0  0  0  0  0
    1.6795    0.6053   -0.2199 C   0  0  0  0  0  0  0  0  0  0  0  0
    0.2592    0.4469   -0.1336 C   0  0  0  0  0  0  0  0  0  0  0  0
   -0.3562   -0.8601   -0.2162 C   0  0  0  0  0  0  0  0  0  0  0  0
    0.2858   -1.9141   -0.3783 O   0  0  0  0  0  0  0  0  0  0  0  0
    2.4624   -0.4637   -0.4078 N   0  0  0  0  0  0  0  0  0  0  0  0
    3.8971   -0.5528   -0.3893 C   0  0  0  0  0  0  0  0  0  0  0  0
    4.3413   -1.6630    0.5812 C   0  0  0  0  0  0  0  0  0  0  0  0
    5.7218   -1.9202    0.5016 O   0  0  0  0  0  0  0  0  0  0  0  0
   -5.6724   -1.2598    0.1661 H   0  0  0  0  0  0  0  0  0  0  0  0
   -4.2751   -3.2780   -0.1238 H   0  0  0  0  0  0  0  0  0  0  0  0
   -1.8131   -3.0556   -0.2956 H   0  0  0  0  0  0  0  0  0  0  0  0
   -4.5894    0.9727    0.2871 H   0  0  0  0  0  0  0  0  0  0  0  0
   -0.6149    3.7087    0.2741 H   0  0  0  0  0  0  0  0  0  0  0  0
    1.8504    3.9928    0.1110 H   0  0  0  0  0  0  0  0  0  0  0  0
    3.2805    2.0542   -0.2181 H   0  0  0  0  0  0  0  0  0  0  0  0
    1.9635   -1.3493   -0.4879 H   0  0  0  0  0  0  0  0  0  0  0  0
    4.3414    0.3931   -0.0816 H   0  0  0  0  0  0  0  0  0  0  0  0
    4.2660   -0.8051   -1.3902 H   0  0  0  0  0  0  0  0  0  0  0  0
    3.8498   -2.6016    0.3132 H   0  0  0  0  0  0  0  0  0  0  0  0
    4.0488   -1.4001    1.6058 H   0  0  0  0  0  0  0  0  0  0  0  0
    6.2150   -1.1434    0.8010 H   0  0  0  0  0  0  0  0  0  0  0  0
  1  2  4  0  0  0  0
  2  3  4  0  0  0  0
  3  4  4  0  0  0  0
  4  5  4  0  0  0  0
  1  6  4  0  0  0  0
  5  6  4  0  0  0  0
  5  7  1  0  0  0  0
  7  8  2  0  0  0  0
  7  9  1  0  0  0  0
  9 10  4  0  0  0  0
 10 11  4  0  0  0  0
 11 12  2  0  0  0  0
 12 13  4  0  0  0  0
  9 14  4  0  0  0  0
 13 14  4  0  0  0  0
  4 15  1  0  0  0  0
 14 15  1  0  0  0  0
 15 16  2  0  0  0  0
 13 17  4  0  0  0  0
 17 18  1  0  0  0  0
 18 19  1  0  0  0  0
 19 20  1  0  0  0  0
  1 21  1  0  0  0  0
  2 22  1  0  0  0  0
  3 23  1  0  0  0  0
  6 24  1  0  0  0  0
 10 25  1  0  0  0  0
 11 26  1  0  0  0  0
 12 27  1  0  0  0  0
 17 28  1  0  0  0  0
 18 29  1  0  0  0  0
 18 30  1  0  0  0  0
 19 31  1  0  0  0  0
 19 32  1  0  0  0  0
 20 33  1  0  0  0  0
M  END
