 xtb: 6.7.1 (edcfbbe)
          04112516443D

 20 19  0     0  0            999 V2000
   -3.4010   -0.9427    0.3967 C   0  0  0  0  0  0  0  0  0  0  0  0
   -1.9370   -0.5964    0.6411 C   0  0  0  0  0  0  0  0  0  0  0  0
   -1.3585    0.1930   -0.5320 C   0  0  0  0  0  0  0  0  0  0  0  0
    0.0824    0.5966   -0.3574 C   0  0  0  0  0  0  0  0  0  0  0  0
    0.5875    1.5497   -0.9181 O   0  0  0  0  0  0  0  0  0  0  0  0
    0.7454   -0.2022    0.4659 O   0  0  0  0  0  0  0  0  0  0  0  0
    2.1421    0.0526    0.6886 C   0  0  0  0  0  0  0  0  0  0  0  0
    2.9988   -0.6165   -0.3753 C   0  0  0  0  0  0  0  0  0  0  0  0
   -3.8027   -1.4983    1.2395 H   0  0  0  0  0  0  0  0  0  0  0  0
   -3.9909   -0.0384    0.2682 H   0  0  0  0  0  0  0  0  0  0  0  0
   -3.5055   -1.5509   -0.4983 H   0  0  0  0  0  0  0  0  0  0  0  0
   -1.3592   -1.5102    0.7814 H   0  0  0  0  0  0  0  0  0  0  0  0
   -1.8474   -0.0034    1.5528 H   0  0  0  0  0  0  0  0  0  0  0  0
   -1.9336    1.1020   -0.7173 H   0  0  0  0  0  0  0  0  0  0  0  0
   -1.4056   -0.4110   -1.4424 H   0  0  0  0  0  0  0  0  0  0  0  0
    2.3043    1.1348    0.6884 H   0  0  0  0  0  0  0  0  0  0  0  0
    2.3414   -0.3613    1.6775 H   0  0  0  0  0  0  0  0  0  0  0  0
    4.0473   -0.4616   -0.1425 H   0  0  0  0  0  0  0  0  0  0  0  0
    2.7913   -1.6827   -0.4075 H   0  0  0  0  0  0  0  0  0  0  0  0
    2.7863   -0.1836   -1.3503 H   0  0  0  0  0  0  0  0  0  0  0  0
  1  2  1  0  0  0  0
  2  3  1  0  0  0  0
  3  4  1  0  0  0  0
  4  5  2  0  0  0  0
  4  6  1  0  0  0  0
  6  7  1  0  0  0  0
  7  8  1  0  0  0  0
  1  9  1  0  0  0  0
  1 10  1  0  0  0  0
  1 11  1  0  0  0  0
  2 12  1  0  0  0  0
  2 13  1  0  0  0  0
  3 14  1  0  0  0  0
  3 15  1  0  0  0  0
  7 16  1  0  0  0  0
  7 17  1  0  0  0  0
  8 18  1  0  0  0  0
  8 19  1  0  0  0  0
  8 20  1  0  0  0  0
M  END
