20
 xtb: 6.7.1 (edcfbbe)
C           -3.38997850536954       -1.00709374455793        0.33434869585677
C           -1.87464908703521       -0.95381825898072        0.16288794366707
C           -1.39474006080827        0.48245076533479       -0.02913792163367
C            0.08859604375396        0.69820655202213       -0.14982299830156
O            0.62280778169896        1.79039269468644       -0.02195498765405
O            0.76319254126019       -0.42605213922467       -0.44302641511840
C            2.21731343269515       -0.31768694210218       -0.58102379394249
C            2.89031820599675       -0.37800711475936        0.77031510425904
H           -3.70873222708803       -0.42347616712801        1.20495202613826
H           -3.89933656691203       -0.60035257025409       -0.54618532070127
H           -3.73350048955263       -2.03645007978775        0.47556741409638
H           -1.57849527484144       -1.56256739177901       -0.69742049430798
H           -1.38526880416447       -1.38628103426080        1.04302810184433
H           -1.73469503879306        1.12052828260790        0.79421772418379
H           -1.83360214378529        0.91075567787670       -0.94149459505836
H            2.48512579695683       -1.17601003154058       -1.20003217391717
H            2.45202861970789        0.60333565744120       -1.12000560209664
H            3.97559717424033       -0.35947139596443        0.62888676144097
H            2.61115323350762        0.47506295777808        1.39444087248597
H            2.62888670638132       -1.30281288644985        1.29256942477512
