 xtb: 6.7.1 (edcfbbe)
          04112515593D

 20 19  0     0  0            999 V2000
   -3.3478   -0.9102    0.3834 C   0  0  0  0  0  0  0  0  0  0  0  0
   -2.8142    0.4868    0.0858 C   0  0  0  0  0  0  0  0  0  0  0  0
   -1.4150    0.4742   -0.5282 C   0  0  0  0  0  0  0  0  0  0  0  0
   -0.3512   -0.0608    0.4286 C   0  0  0  0  0  0  0  0  0  0  0  0
    1.0431    0.1863   -0.0830 C   0  0  0  0  0  0  0  0  0  0  0  0
    1.3599    1.0259   -0.8982 O   0  0  0  0  0  0  0  0  0  0  0  0
    1.9205   -0.6360    0.4879 O   0  0  0  0  0  0  0  0  0  0  0  0
    3.2960   -0.4922    0.1233 C   0  0  0  0  0  0  0  0  0  0  0  0
   -4.3764   -0.8524    0.7304 H   0  0  0  0  0  0  0  0  0  0  0  0
   -3.3232   -1.5243   -0.5139 H   0  0  0  0  0  0  0  0  0  0  0  0
   -2.7578   -1.3986    1.1537 H   0  0  0  0  0  0  0  0  0  0  0  0
   -3.4899    0.9829   -0.6135 H   0  0  0  0  0  0  0  0  0  0  0  0
   -2.8003    1.0752    1.0054 H   0  0  0  0  0  0  0  0  0  0  0  0
   -1.1348    1.4897   -0.8162 H   0  0  0  0  0  0  0  0  0  0  0  0
   -1.4195   -0.1319   -1.4363 H   0  0  0  0  0  0  0  0  0  0  0  0
   -0.4612   -1.1291    0.6100 H   0  0  0  0  0  0  0  0  0  0  0  0
   -0.4293    0.4514    1.3914 H   0  0  0  0  0  0  0  0  0  0  0  0
    3.8173   -1.3025    0.6228 H   0  0  0  0  0  0  0  0  0  0  0  0
    3.6695    0.4771    0.4553 H   0  0  0  0  0  0  0  0  0  0  0  0
    3.4040   -0.5622   -0.9597 H   0  0  0  0  0  0  0  0  0  0  0  0
  1  2  1  0  0  0  0
  2  3  1  0  0  0  0
  3  4  1  0  0  0  0
  4  5  1  0  0  0  0
  5  6  2  0  0  0  0
  5  7  1  0  0  0  0
  7  8  1  0  0  0  0
  1  9  1  0  0  0  0
  1 10  1  0  0  0  0
  1 11  1  0  0  0  0
  2 12  1  0  0  0  0
  2 13  1  0  0  0  0
  3 14  1  0  0  0  0
  3 15  1  0  0  0  0
  4 16  1  0  0  0  0
  4 17  1  0  0  0  0
  8 18  1  0  0  0  0
  8 19  1  0  0  0  0
  8 20  1  0  0  0  0
M  END
