 xtb: 6.7.1 (edcfbbe)
          04112512363D

 16 15  0     0  0            999 V2000
    1.7739   -0.8236    0.3625 C   0  0  0  0  0  0  0  0  0  0  0  0
    1.2152    0.5742    0.1090 C   0  0  0  0  0  0  0  0  0  0  0  0
    0.0362    0.5917   -0.8737 C   0  0  0  0  0  0  0  0  0  0  0  0
   -1.3445    0.5131   -0.2003 C   0  0  0  0  0  0  0  0  0  0  0  0
   -1.6427   -0.7042    0.5359 N   0  0  0  0  0  0  0  0  0  0  0  0
    2.6079   -0.7741    1.0591 H   0  0  0  0  0  0  0  0  0  0  0  0
    1.0218   -1.4870    0.7821 H   0  0  0  0  0  0  0  0  0  0  0  0
    2.1320   -1.2608   -0.5675 H   0  0  0  0  0  0  0  0  0  0  0  0
    0.9031    1.0230    1.0552 H   0  0  0  0  0  0  0  0  0  0  0  0
    2.0206    1.1931   -0.2921 H   0  0  0  0  0  0  0  0  0  0  0  0
    0.0590    1.5196   -1.4481 H   0  0  0  0  0  0  0  0  0  0  0  0
    0.1394   -0.2348   -1.5812 H   0  0  0  0  0  0  0  0  0  0  0  0
   -2.1136    0.6183   -0.9721 H   0  0  0  0  0  0  0  0  0  0  0  0
   -1.4535    1.3499    0.4954 H   0  0  0  0  0  0  0  0  0  0  0  0
   -1.0043   -0.7972    1.3183 H   0  0  0  0  0  0  0  0  0  0  0  0
   -1.5091   -1.5088   -0.0679 H   0  0  0  0  0  0  0  0  0  0  0  0
  1  2  1  0  0  0  0
  2  3  1  0  0  0  0
  3  4  1  0  0  0  0
  4  5  1  0  0  0  0
  1  6  1  0  0  0  0
  1  7  1  0  0  0  0
  1  8  1  0  0  0  0
  2  9  1  0  0  0  0
  2 10  1  0  0  0  0
  3 11  1  0  0  0  0
  3 12  1  0  0  0  0
  4 13  1  0  0  0  0
  4 14  1  0  0  0  0
  5 15  1  0  0  0  0
  5 16  1  0  0  0  0
M  END
