 xtb: 6.7.1 (edcfbbe)
          04112515543D

 31 32  0     0  0            999 V2000
   -3.5343   -0.3078   -1.8181 C   0  0  0  0  0  0  0  0  0  0  0  0
   -3.1380   -0.5369   -0.3597 C   0  0  0  0  0  0  0  0  0  0  0  0
   -3.5699   -1.4687    0.0133 H   0  0  0  0  0  0  0  0  0  0  0  0
   -1.6318   -0.5925   -0.1953 C   0  0  0  0  0  0  0  0  0  0  0  0
   -1.0172   -1.7868    0.2221 C   0  0  0  0  0  0  0  0  0  0  0  0
    0.3409   -1.8655    0.3562 C   0  0  0  0  0  0  0  0  0  0  0  0
    1.1617   -0.7514    0.0864 C   0  0  0  0  0  0  0  0  0  0  0  0
    2.5648   -0.8123    0.2192 C   0  0  0  0  0  0  0  0  0  0  0  0
    3.3352    0.2916   -0.0477 C   0  0  0  0  0  0  0  0  0  0  0  0
    2.7194    1.4984   -0.4569 C   0  0  0  0  0  0  0  0  0  0  0  0
    1.3668    1.5770   -0.5908 C   0  0  0  0  0  0  0  0  0  0  0  0
    0.5460    0.4579   -0.3256 C   0  0  0  0  0  0  0  0  0  0  0  0
   -0.8540    0.5074   -0.4570 C   0  0  0  0  0  0  0  0  0  0  0  0
    4.6942    0.3487    0.0451 O   0  0  0  0  0  0  0  0  0  0  0  0
    5.3926   -0.8145    0.4457 C   0  0  0  0  0  0  0  0  0  0  0  0
   -3.6247    0.5860    0.5290 C   0  0  0  0  0  0  0  0  0  0  0  0
   -3.7245    1.7472    0.1979 O   0  0  0  0  0  0  0  0  0  0  0  0
   -3.8982    0.1659    1.7545 O   0  0  0  0  0  0  0  0  0  0  0  0
   -3.0665   -1.0580   -2.4490 H   0  0  0  0  0  0  0  0  0  0  0  0
   -4.6138   -0.3705   -1.9298 H   0  0  0  0  0  0  0  0  0  0  0  0
   -3.2123    0.6784   -2.1414 H   0  0  0  0  0  0  0  0  0  0  0  0
   -1.6325   -2.6484    0.4337 H   0  0  0  0  0  0  0  0  0  0  0  0
    0.8032   -2.7885    0.6734 H   0  0  0  0  0  0  0  0  0  0  0  0
    3.0035   -1.7458    0.5340 H   0  0  0  0  0  0  0  0  0  0  0  0
    3.3599    2.3430   -0.6564 H   0  0  0  0  0  0  0  0  0  0  0  0
    0.9016    2.4998   -0.9034 H   0  0  0  0  0  0  0  0  0  0  0  0
   -1.3134    1.4377   -0.7605 H   0  0  0  0  0  0  0  0  0  0  0  0
    5.0956   -1.1249    1.4508 H   0  0  0  0  0  0  0  0  0  0  0  0
    6.4433   -0.5338    0.4437 H   0  0  0  0  0  0  0  0  0  0  0  0
    5.2284   -1.6339   -0.2589 H   0  0  0  0  0  0  0  0  0  0  0  0
   -4.1676    0.8896    2.3534 H   0  0  0  0  0  0  0  0  0  0  0  0
  1  2  1  0  0  0  0
  2  3  1  0  0  0  0
  2  4  1  0  0  0  0
  4  5  4  0  0  0  0
  5  6  2  0  0  0  0
  6  7  4  0  0  0  0
  7  8  4  0  0  0  0
  8  9  4  0  0  0  0
  9 10  4  0  0  0  0
 10 11  2  0  0  0  0
  7 12  4  0  0  0  0
 11 12  4  0  0  0  0
  4 13  2  0  0  0  0
 12 13  4  0  0  0  0
  9 14  1  0  0  0  0
 14 15  1  0  0  0  0
  2 16  1  0  0  0  0
 16 17  2  0  0  0  0
 16 18  1  0  0  0  0
  1 19  1  0  0  0  0
  1 20  1  0  0  0  0
  1 21  1  0  0  0  0
  5 22  1  0  0  0  0
  6 23  1  0  0  0  0
  8 24  1  0  0  0  0
 10 25  1  0  0  0  0
 11 26  1  0  0  0  0
 13 27  1  0  0  0  0
 15 28  1  0  0  0  0
 15 29  1  0  0  0  0
 15 30  1  0  0  0  0
 18 31  1  0  0  0  0
M  END
