 xtb: 6.7.1 (edcfbbe)
          04112515593D

 20 19  0     0  0            999 V2000
   -3.4162    0.6046    0.4676 C   0  0  0  0  0  0  0  0  0  0  0  0
   -2.7560   -0.6830   -0.0121 C   0  0  0  0  0  0  0  0  0  0  0  0
   -1.3521   -0.4679   -0.5762 C   0  0  0  0  0  0  0  0  0  0  0  0
   -0.3425   -0.0414    0.4924 C   0  0  0  0  0  0  0  0  0  0  0  0
    1.0170    0.1943   -0.1080 C   0  0  0  0  0  0  0  0  0  0  0  0
    1.2295    0.7586   -1.1608 O   0  0  0  0  0  0  0  0  0  0  0  0
    1.9828   -0.2978    0.6620 O   0  0  0  0  0  0  0  0  0  0  0  0
    3.3375   -0.1342    0.2323 C   0  0  0  0  0  0  0  0  0  0  0  0
   -3.4173    1.3484   -0.3258 H   0  0  0  0  0  0  0  0  0  0  0  0
   -4.4457    0.4113    0.7582 H   0  0  0  0  0  0  0  0  0  0  0  0
   -2.8960    1.0173    1.3277 H   0  0  0  0  0  0  0  0  0  0  0  0
   -2.7076   -1.3975    0.8117 H   0  0  0  0  0  0  0  0  0  0  0  0
   -3.3728   -1.1236   -0.7976 H   0  0  0  0  0  0  0  0  0  0  0  0
   -1.3768    0.2943   -1.3575 H   0  0  0  0  0  0  0  0  0  0  0  0
   -1.0055   -1.3969   -1.0342 H   0  0  0  0  0  0  0  0  0  0  0  0
   -0.2532   -0.7898    1.2793 H   0  0  0  0  0  0  0  0  0  0  0  0
   -0.6608    0.9025    0.9396 H   0  0  0  0  0  0  0  0  0  0  0  0
    3.6866    0.8640    0.4974 H   0  0  0  0  0  0  0  0  0  0  0  0
    3.4034   -0.2636   -0.8486 H   0  0  0  0  0  0  0  0  0  0  0  0
    3.9101   -0.8936    0.7559 H   0  0  0  0  0  0  0  0  0  0  0  0
  1  2  1  0  0  0  0
  2  3  1  0  0  0  0
  3  4  1  0  0  0  0
  4  5  1  0  0  0  0
  5  6  2  0  0  0  0
  5  7  1  0  0  0  0
  7  8  1  0  0  0  0
  1  9  1  0  0  0  0
  1 10  1  0  0  0  0
  1 11  1  0  0  0  0
  2 12  1  0  0  0  0
  2 13  1  0  0  0  0
  3 14  1  0  0  0  0
  3 15  1  0  0  0  0
  4 16  1  0  0  0  0
  4 17  1  0  0  0  0
  8 18  1  0  0  0  0
  8 19  1  0  0  0  0
  8 20  1  0  0  0  0
M  END
