 xtb: 6.7.1 (edcfbbe)
          04112512433D

 16 15  0     0  0            999 V2000
    2.5391   -0.3606   -0.0156 C   0  0  0  0  0  0  0  0  0  0  0  0
    1.2864    0.5074   -0.0303 C   0  0  0  0  0  0  0  0  0  0  0  0
    0.0145   -0.3348    0.0178 C   0  0  0  0  0  0  0  0  0  0  0  0
   -1.2459    0.5272    0.0099 C   0  0  0  0  0  0  0  0  0  0  0  0
   -2.4351   -0.3147   -0.0341 N   0  0  0  0  0  0  0  0  0  0  0  0
    2.5743   -0.9634    0.8890 H   0  0  0  0  0  0  0  0  0  0  0  0
    2.5470   -1.0295   -0.8729 H   0  0  0  0  0  0  0  0  0  0  0  0
    3.4325    0.2578   -0.0522 H   0  0  0  0  0  0  0  0  0  0  0  0
    1.3032    1.1850    0.8267 H   0  0  0  0  0  0  0  0  0  0  0  0
    1.2782    1.1190   -0.9350 H   0  0  0  0  0  0  0  0  0  0  0  0
   -0.0194   -1.0054   -0.8419 H   0  0  0  0  0  0  0  0  0  0  0  0
    0.0202   -0.9512    0.9202 H   0  0  0  0  0  0  0  0  0  0  0  0
   -1.2535    1.1524   -0.8879 H   0  0  0  0  0  0  0  0  0  0  0  0
   -1.2265    1.2009    0.8852 H   0  0  0  0  0  0  0  0  0  0  0  0
   -3.2671    0.2643   -0.0295 H   0  0  0  0  0  0  0  0  0  0  0  0
   -2.4662   -0.9005    0.7940 H   0  0  0  0  0  0  0  0  0  0  0  0
  1  2  1  0  0  0  0
  2  3  1  0  0  0  0
  3  4  1  0  0  0  0
  4  5  1  0  0  0  0
  1  6  1  0  0  0  0
  1  7  1  0  0  0  0
  1  8  1  0  0  0  0
  2  9  1  0  0  0  0
  2 10  1  0  0  0  0
  3 11  1  0  0  0  0
  3 12  1  0  0  0  0
  4 13  1  0  0  0  0
  4 14  1  0  0  0  0
  5 15  1  0  0  0  0
  5 16  1  0  0  0  0
M  END
