 xtb: 6.7.1 (edcfbbe)
          04112516443D

 20 19  0     0  0            999 V2000
   -2.6492   -1.0286   -0.4377 C   0  0  0  0  0  0  0  0  0  0  0  0
   -2.1847   -0.2803    0.8059 C   0  0  0  0  0  0  0  0  0  0  0  0
   -1.3105    0.9277    0.4479 C   0  0  0  0  0  0  0  0  0  0  0  0
   -0.0360    0.5012   -0.2346 C   0  0  0  0  0  0  0  0  0  0  0  0
    0.2908    0.8295   -1.3568 O   0  0  0  0  0  0  0  0  0  0  0  0
    0.6941   -0.2908    0.5402 O   0  0  0  0  0  0  0  0  0  0  0  0
    1.9461   -0.7790    0.0332 C   0  0  0  0  0  0  0  0  0  0  0  0
    3.0685    0.2136    0.2949 C   0  0  0  0  0  0  0  0  0  0  0  0
   -1.7967   -1.3972   -1.0054 H   0  0  0  0  0  0  0  0  0  0  0  0
   -3.2710   -1.8759   -0.1616 H   0  0  0  0  0  0  0  0  0  0  0  0
   -3.2257   -0.3721   -1.0853 H   0  0  0  0  0  0  0  0  0  0  0  0
   -1.6145   -0.9512    1.4497 H   0  0  0  0  0  0  0  0  0  0  0  0
   -3.0530    0.0738    1.3625 H   0  0  0  0  0  0  0  0  0  0  0  0
   -1.0380    1.4605    1.3596 H   0  0  0  0  0  0  0  0  0  0  0  0
   -1.8427    1.6027   -0.2223 H   0  0  0  0  0  0  0  0  0  0  0  0
    2.1125   -1.7158    0.5659 H   0  0  0  0  0  0  0  0  0  0  0  0
    1.8405   -0.9650   -1.0401 H   0  0  0  0  0  0  0  0  0  0  0  0
    3.1320    0.4354    1.3568 H   0  0  0  0  0  0  0  0  0  0  0  0
    4.0093   -0.2105   -0.0404 H   0  0  0  0  0  0  0  0  0  0  0  0
    2.8833    1.1367   -0.2501 H   0  0  0  0  0  0  0  0  0  0  0  0
  1  2  1  0  0  0  0
  2  3  1  0  0  0  0
  3  4  1  0  0  0  0
  4  5  2  0  0  0  0
  4  6  1  0  0  0  0
  6  7  1  0  0  0  0
  7  8  1  0  0  0  0
  1  9  1  0  0  0  0
  1 10  1  0  0  0  0
  1 11  1  0  0  0  0
  2 12  1  0  0  0  0
  2 13  1  0  0  0  0
  3 14  1  0  0  0  0
  3 15  1  0  0  0  0
  7 16  1  0  0  0  0
  7 17  1  0  0  0  0
  8 18  1  0  0  0  0
  8 19  1  0  0  0  0
  8 20  1  0  0  0  0
M  END
