 xtb: 6.7.1 (edcfbbe)
          04112516443D

 20 19  0     0  0            999 V2000
   -3.3691   -0.9871    0.3881 C   0  0  0  0  0  0  0  0  0  0  0  0
   -1.8716   -0.7477    0.5411 C   0  0  0  0  0  0  0  0  0  0  0  0
   -1.3931    0.3460   -0.4094 C   0  0  0  0  0  0  0  0  0  0  0  0
    0.0770    0.6622   -0.3176 C   0  0  0  0  0  0  0  0  0  0  0  0
    0.6046    1.5751   -0.9238 O   0  0  0  0  0  0  0  0  0  0  0  0
    0.7345   -0.1512    0.4950 O   0  0  0  0  0  0  0  0  0  0  0  0
    2.1505    0.0361    0.6533 C   0  0  0  0  0  0  0  0  0  0  0  0
    2.9265   -0.7192   -0.4148 C   0  0  0  0  0  0  0  0  0  0  0  0
   -3.6977   -1.7673    1.0690 H   0  0  0  0  0  0  0  0  0  0  0  0
   -3.9258   -0.0799    0.6101 H   0  0  0  0  0  0  0  0  0  0  0  0
   -3.6052   -1.2948   -0.6276 H   0  0  0  0  0  0  0  0  0  0  0  0
   -1.3279   -1.6701    0.3343 H   0  0  0  0  0  0  0  0  0  0  0  0
   -1.6480   -0.4564    1.5683 H   0  0  0  0  0  0  0  0  0  0  0  0
   -1.9334    1.2787   -0.2314 H   0  0  0  0  0  0  0  0  0  0  0  0
   -1.5910    0.0629   -1.4466 H   0  0  0  0  0  0  0  0  0  0  0  0
    2.3693    1.1071    0.6027 H   0  0  0  0  0  0  0  0  0  0  0  0
    2.3682   -0.3498    1.6496 H   0  0  0  0  0  0  0  0  0  0  0  0
    2.6970   -0.3140   -1.3978 H   0  0  0  0  0  0  0  0  0  0  0  0
    3.9903   -0.6120   -0.2295 H   0  0  0  0  0  0  0  0  0  0  0  0
    2.6627   -1.7730   -0.3949 H   0  0  0  0  0  0  0  0  0  0  0  0
  1  2  1  0  0  0  0
  2  3  1  0  0  0  0
  3  4  1  0  0  0  0
  4  5  2  0  0  0  0
  4  6  1  0  0  0  0
  6  7  1  0  0  0  0
  7  8  1  0  0  0  0
  1  9  1  0  0  0  0
  1 10  1  0  0  0  0
  1 11  1  0  0  0  0
  2 12  1  0  0  0  0
  2 13  1  0  0  0  0
  3 14  1  0  0  0  0
  3 15  1  0  0  0  0
  7 16  1  0  0  0  0
  7 17  1  0  0  0  0
  8 18  1  0  0  0  0
  8 19  1  0  0  0  0
  8 20  1  0  0  0  0
M  END
