 xtb: 6.7.1 (edcfbbe)
          04112517463D

 20 19  0     0  0            999 V2000
   -2.4916   -1.3631   -0.1085 C   0  0  0  0  0  0  0  0  0  0  0  0
   -2.5661    0.1482    0.0724 C   0  0  0  0  0  0  0  0  0  0  0  0
   -1.2944    0.7008    0.7229 C   0  0  0  0  0  0  0  0  0  0  0  0
   -0.1091    0.5521   -0.1961 C   0  0  0  0  0  0  0  0  0  0  0  0
   -0.0764    0.9124   -1.3553 O   0  0  0  0  0  0  0  0  0  0  0  0
    0.9178   -0.0204    0.4159 O   0  0  0  0  0  0  0  0  0  0  0  0
    2.1347   -0.2061   -0.3270 C   0  0  0  0  0  0  0  0  0  0  0  0
    3.2507   -0.5058    0.6552 C   0  0  0  0  0  0  0  0  0  0  0  0
   -2.3394   -1.8560    0.8487 H   0  0  0  0  0  0  0  0  0  0  0  0
   -3.4114   -1.7379   -0.5494 H   0  0  0  0  0  0  0  0  0  0  0  0
   -1.6653   -1.6255   -0.7668 H   0  0  0  0  0  0  0  0  0  0  0  0
   -3.4212    0.4010    0.6996 H   0  0  0  0  0  0  0  0  0  0  0  0
   -2.6969    0.6280   -0.8993 H   0  0  0  0  0  0  0  0  0  0  0  0
   -1.0750    0.1879    1.6585 H   0  0  0  0  0  0  0  0  0  0  0  0
   -1.4207    1.7673    0.9182 H   0  0  0  0  0  0  0  0  0  0  0  0
    1.9833   -1.0332   -1.0283 H   0  0  0  0  0  0  0  0  0  0  0  0
    2.3297    0.7026   -0.9059 H   0  0  0  0  0  0  0  0  0  0  0  0
    3.0118   -1.3981    1.2259 H   0  0  0  0  0  0  0  0  0  0  0  0
    4.1755   -0.6644    0.1104 H   0  0  0  0  0  0  0  0  0  0  0  0
    3.3771    0.3260    1.3420 H   0  0  0  0  0  0  0  0  0  0  0  0
  1  2  1  0  0  0  0
  2  3  1  0  0  0  0
  3  4  1  0  0  0  0
  4  5  2  0  0  0  0
  4  6  1  0  0  0  0
  6  7  1  0  0  0  0
  7  8  1  0  0  0  0
  1  9  1  0  0  0  0
  1 10  1  0  0  0  0
  1 11  1  0  0  0  0
  2 12  1  0  0  0  0
  2 13  1  0  0  0  0
  3 14  1  0  0  0  0
  3 15  1  0  0  0  0
  7 16  1  0  0  0  0
  7 17  1  0  0  0  0
  8 18  1  0  0  0  0
  8 19  1  0  0  0  0
  8 20  1  0  0  0  0
M  END
