 xtb: 6.7.1 (edcfbbe)
          04112515543D

 31 32  0     0  0            999 V2000
   -3.5444    0.2216   -1.8196 C   0  0  0  0  0  0  0  0  0  0  0  0
   -3.1386   -0.4362   -0.5005 C   0  0  0  0  0  0  0  0  0  0  0  0
   -3.5584   -1.4443   -0.4391 H   0  0  0  0  0  0  0  0  0  0  0  0
   -1.6322   -0.5288   -0.3498 C   0  0  0  0  0  0  0  0  0  0  0  0
   -1.0253   -1.7875   -0.1890 C   0  0  0  0  0  0  0  0  0  0  0  0
    0.3307   -1.9018   -0.0595 C   0  0  0  0  0  0  0  0  0  0  0  0
    1.1590   -0.7612   -0.0778 C   0  0  0  0  0  0  0  0  0  0  0  0
    2.5601   -0.8568    0.0557 C   0  0  0  0  0  0  0  0  0  0  0  0
    3.3368    0.2744    0.0386 C   0  0  0  0  0  0  0  0  0  0  0  0
    2.7298    1.5437   -0.1140 C   0  0  0  0  0  0  0  0  0  0  0  0
    1.3794    1.6563   -0.2450 C   0  0  0  0  0  0  0  0  0  0  0  0
    0.5520    0.5109   -0.2317 C   0  0  0  0  0  0  0  0  0  0  0  0
   -0.8463    0.5962   -0.3630 C   0  0  0  0  0  0  0  0  0  0  0  0
    4.6948    0.3035    0.1591 O   0  0  0  0  0  0  0  0  0  0  0  0
    5.3850   -0.9213    0.3137 C   0  0  0  0  0  0  0  0  0  0  0  0
   -3.6420    0.3220    0.7082 C   0  0  0  0  0  0  0  0  0  0  0  0
   -4.0092   -0.2183    1.7323 O   0  0  0  0  0  0  0  0  0  0  0  0
   -3.6103    1.6342    0.5713 O   0  0  0  0  0  0  0  0  0  0  0  0
   -4.6274    0.2399   -1.9110 H   0  0  0  0  0  0  0  0  0  0  0  0
   -3.1728    1.2399   -1.8727 H   0  0  0  0  0  0  0  0  0  0  0  0
   -3.1304   -0.3474   -2.6474 H   0  0  0  0  0  0  0  0  0  0  0  0
   -1.6460   -2.6711   -0.1694 H   0  0  0  0  0  0  0  0  0  0  0  0
    0.7848   -2.8743    0.0607 H   0  0  0  0  0  0  0  0  0  0  0  0
    2.9918   -1.8384    0.1709 H   0  0  0  0  0  0  0  0  0  0  0  0
    3.3758    2.4074   -0.1221 H   0  0  0  0  0  0  0  0  0  0  0  0
    0.9227    2.6274   -0.3617 H   0  0  0  0  0  0  0  0  0  0  0  0
   -1.2927    1.5736   -0.4703 H   0  0  0  0  0  0  0  0  0  0  0  0
    5.0701   -1.4385    1.2238 H   0  0  0  0  0  0  0  0  0  0  0  0
    6.4358   -0.6514    0.3902 H   0  0  0  0  0  0  0  0  0  0  0  0
    5.2330   -1.5705   -0.5524 H   0  0  0  0  0  0  0  0  0  0  0  0
   -3.9079    2.1027    1.3752 H   0  0  0  0  0  0  0  0  0  0  0  0
  1  2  1  0  0  0  0
  2  3  1  0  0  0  0
  2  4  1  0  0  0  0
  4  5  4  0  0  0  0
  5  6  2  0  0  0  0
  6  7  4  0  0  0  0
  7  8  4  0  0  0  0
  8  9  4  0  0  0  0
  9 10  4  0  0  0  0
 10 11  2  0  0  0  0
  7 12  4  0  0  0  0
 11 12  4  0  0  0  0
  4 13  2  0  0  0  0
 12 13  4  0  0  0  0
  9 14  1  0  0  0  0
 14 15  1  0  0  0  0
  2 16  1  0  0  0  0
 16 17  2  0  0  0  0
 16 18  1  0  0  0  0
  1 19  1  0  0  0  0
  1 20  1  0  0  0  0
  1 21  1  0  0  0  0
  5 22  1  0  0  0  0
  6 23  1  0  0  0  0
  8 24  1  0  0  0  0
 10 25  1  0  0  0  0
 11 26  1  0  0  0  0
 13 27  1  0  0  0  0
 15 28  1  0  0  0  0
 15 29  1  0  0  0  0
 15 30  1  0  0  0  0
 18 31  1  0  0  0  0
M  END
