 xtb: 6.7.1 (edcfbbe)
          04112515593D

 20 19  0     0  0            999 V2000
   -3.6638   -0.4499    0.7692 C   0  0  0  0  0  0  0  0  0  0  0  0
   -2.6469   -0.2793   -0.3532 C   0  0  0  0  0  0  0  0  0  0  0  0
   -1.2465   -0.0210    0.1977 C   0  0  0  0  0  0  0  0  0  0  0  0
   -0.2197    0.1494   -0.9317 C   0  0  0  0  0  0  0  0  0  0  0  0
    1.1323    0.4181   -0.3304 C   0  0  0  0  0  0  0  0  0  0  0  0
    1.6043    1.5186   -0.1336 O   0  0  0  0  0  0  0  0  0  0  0  0
    1.7522   -0.7076    0.0048 O   0  0  0  0  0  0  0  0  0  0  0  0
    3.0280   -0.5975    0.6409 C   0  0  0  0  0  0  0  0  0  0  0  0
   -3.3934   -1.2901    1.4043 H   0  0  0  0  0  0  0  0  0  0  0  0
   -3.7053    0.4454    1.3851 H   0  0  0  0  0  0  0  0  0  0  0  0
   -4.6541   -0.6321    0.3602 H   0  0  0  0  0  0  0  0  0  0  0  0
   -2.6307   -1.1798   -0.9695 H   0  0  0  0  0  0  0  0  0  0  0  0
   -2.9439    0.5564   -0.9894 H   0  0  0  0  0  0  0  0  0  0  0  0
   -0.9432   -0.8568    0.8314 H   0  0  0  0  0  0  0  0  0  0  0  0
   -1.2552    0.8828    0.8112 H   0  0  0  0  0  0  0  0  0  0  0  0
   -0.4975    0.9942   -1.5611 H   0  0  0  0  0  0  0  0  0  0  0  0
   -0.1716   -0.7634   -1.5240 H   0  0  0  0  0  0  0  0  0  0  0  0
    3.7159   -0.0422    0.0023 H   0  0  0  0  0  0  0  0  0  0  0  0
    3.3694   -1.6168    0.7910 H   0  0  0  0  0  0  0  0  0  0  0  0
    2.9261   -0.0734    1.5918 H   0  0  0  0  0  0  0  0  0  0  0  0
  1  2  1  0  0  0  0
  2  3  1  0  0  0  0
  3  4  1  0  0  0  0
  4  5  1  0  0  0  0
  5  6  2  0  0  0  0
  5  7  1  0  0  0  0
  7  8  1  0  0  0  0
  1  9  1  0  0  0  0
  1 10  1  0  0  0  0
  1 11  1  0  0  0  0
  2 12  1  0  0  0  0
  2 13  1  0  0  0  0
  3 14  1  0  0  0  0
  3 15  1  0  0  0  0
  4 16  1  0  0  0  0
  4 17  1  0  0  0  0
  8 18  1  0  0  0  0
  8 19  1  0  0  0  0
  8 20  1  0  0  0  0
M  END
