 xtb: 6.7.1 (edcfbbe)
          04112516443D

 20 19  0     0  0            999 V2000
   -3.6529   -0.6323    0.2168 C   0  0  0  0  0  0  0  0  0  0  0  0
   -2.3978    0.0982   -0.2426 C   0  0  0  0  0  0  0  0  0  0  0  0
   -1.1504   -0.4468    0.4492 C   0  0  0  0  0  0  0  0  0  0  0  0
    0.1133    0.1928   -0.0626 C   0  0  0  0  0  0  0  0  0  0  0  0
    0.2253    0.7754   -1.1202 O   0  0  0  0  0  0  0  0  0  0  0  0
    1.1122    0.0368    0.8011 O   0  0  0  0  0  0  0  0  0  0  0  0
    2.4111    0.5421    0.4474 C   0  0  0  0  0  0  0  0  0  0  0  0
    3.2077   -0.4939   -0.3307 C   0  0  0  0  0  0  0  0  0  0  0  0
   -4.5289   -0.2242   -0.2795 H   0  0  0  0  0  0  0  0  0  0  0  0
   -3.5858   -1.6914   -0.0188 H   0  0  0  0  0  0  0  0  0  0  0  0
   -3.7839   -0.5250    1.2907 H   0  0  0  0  0  0  0  0  0  0  0  0
   -2.4894    1.1646   -0.0278 H   0  0  0  0  0  0  0  0  0  0  0  0
   -2.2757   -0.0057   -1.3223 H   0  0  0  0  0  0  0  0  0  0  0  0
   -1.0616   -1.5203    0.2627 H   0  0  0  0  0  0  0  0  0  0  0  0
   -1.1963   -0.3038    1.5291 H   0  0  0  0  0  0  0  0  0  0  0  0
    2.2813    1.4536   -0.1439 H   0  0  0  0  0  0  0  0  0  0  0  0
    2.8857    0.7731    1.4015 H   0  0  0  0  0  0  0  0  0  0  0  0
    2.7202   -0.7027   -1.2804 H   0  0  0  0  0  0  0  0  0  0  0  0
    4.2045   -0.1109   -0.5232 H   0  0  0  0  0  0  0  0  0  0  0  0
    3.2807   -1.4154    0.2405 H   0  0  0  0  0  0  0  0  0  0  0  0
  1  2  1  0  0  0  0
  2  3  1  0  0  0  0
  3  4  1  0  0  0  0
  4  5  2  0  0  0  0
  4  6  1  0  0  0  0
  6  7  1  0  0  0  0
  7  8  1  0  0  0  0
  1  9  1  0  0  0  0
  1 10  1  0  0  0  0
  1 11  1  0  0  0  0
  2 12  1  0  0  0  0
  2 13  1  0  0  0  0
  3 14  1  0  0  0  0
  3 15  1  0  0  0  0
  7 16  1  0  0  0  0
  7 17  1  0  0  0  0
  8 18  1  0  0  0  0
  8 19  1  0  0  0  0
  8 20  1  0  0  0  0
M  END
