 xtb: 6.7.1 (edcfbbe)
          04112512293D

 16 15  0     0  0            999 V2000
    2.5518   -0.3230   -0.0002 C   0  0  0  0  0  0  0  0  0  0  0  0
    1.2828    0.5217    0.0001 C   0  0  0  0  0  0  0  0  0  0  0  0
    0.0247   -0.3425    0.0003 C   0  0  0  0  0  0  0  0  0  0  0  0
   -1.2556    0.5038   -0.0001 C   0  0  0  0  0  0  0  0  0  0  0  0
   -2.4945   -0.2601   -0.0001 N   0  0  0  0  0  0  0  0  0  0  0  0
    2.5862   -0.9589   -0.8821 H   0  0  0  0  0  0  0  0  0  0  0  0
    3.4333    0.3131   -0.0004 H   0  0  0  0  0  0  0  0  0  0  0  0
    2.5866   -0.9588    0.8818 H   0  0  0  0  0  0  0  0  0  0  0  0
    1.2747    1.1666    0.8815 H   0  0  0  0  0  0  0  0  0  0  0  0
    1.2743    1.1666   -0.8813 H   0  0  0  0  0  0  0  0  0  0  0  0
    0.0284   -0.9879   -0.8829 H   0  0  0  0  0  0  0  0  0  0  0  0
    0.0283   -0.9874    0.8838 H   0  0  0  0  0  0  0  0  0  0  0  0
   -1.2662    1.1477   -0.8841 H   0  0  0  0  0  0  0  0  0  0  0  0
   -1.2664    1.1481    0.8836 H   0  0  0  0  0  0  0  0  0  0  0  0
   -2.5208   -0.8621   -0.8167 H   0  0  0  0  0  0  0  0  0  0  0  0
   -2.5210   -0.8619    0.8167 H   0  0  0  0  0  0  0  0  0  0  0  0
  1  2  1  0  0  0  0
  2  3  1  0  0  0  0
  3  4  1  0  0  0  0
  4  5  1  0  0  0  0
  1  6  1  0  0  0  0
  1  7  1  0  0  0  0
  1  8  1  0  0  0  0
  2  9  1  0  0  0  0
  2 10  1  0  0  0  0
  3 11  1  0  0  0  0
  3 12  1  0  0  0  0
  4 13  1  0  0  0  0
  4 14  1  0  0  0  0
  5 15  1  0  0  0  0
  5 16  1  0  0  0  0
M  END
