33
 xtb: 6.7.1 (edcfbbe)
C           -4.71500260258328       -0.99689656949191       -0.29971290287254
C           -4.01676492073246       -2.19578837079279       -0.14701569709302
C           -2.63896109093226       -2.18714817378044        0.02455060322475
C           -1.93821706326863       -0.97822894725657        0.04361943897329
C           -2.64266652842742        0.22697030472199       -0.11236629061908
C           -4.03032502801764        0.20931002197460       -0.28173481970226
C           -1.92309726710176        1.51264776921474       -0.09995880886891
O           -2.53184746961713        2.58108287137429       -0.21649403743770
C           -0.44749046377059        1.48452745496847        0.05506382287670
C            0.21979335978209        2.69799896891652        0.02434074092880
C            1.61106853094062        2.72623672822171        0.15884130833752
C            2.33054238820126        1.56658551309154        0.32824697184129
C            1.68550679013946        0.30285771604045        0.37875999308781
C            0.25648559342108        0.26074796972141        0.22839015766546
C           -0.46574482430556       -0.99726155688462        0.23251871206222
O            0.10171211043403       -2.10164983247357        0.38697671564048
N            2.40172404245544       -0.82418971164806        0.58766033448494
C            3.85310383823102       -0.90730655837742        0.59696965264055
C            4.44068370475256       -0.87579394421952       -0.81574473968693
O            5.86981186838273       -0.95649516244036       -0.77915879675749
H           -5.79161546133721       -1.00798299149534       -0.43304910453409
H           -4.55187647895184       -3.13965870697960       -0.16205598375256
H           -2.09620237591023       -3.11762002084310        0.14350745404911
H           -4.56123971532365        1.14719522877158       -0.40011289615655
H           -0.34104430865411        3.61490410319715       -0.10833261654970
H            2.13592253288180        3.67566366426646        0.12829333608785
H            3.40756385869385        1.62167093328741        0.42590702518542
H            1.86390855087820       -1.68447669342441        0.54818239322862
H            4.12556817964785       -1.84998755162240        1.07983228423341
H            4.28415557803685       -0.09907404217720        1.19894361752799
H            4.11242013635306        0.02956081887979       -1.34473365029853
H            4.09350130467937       -1.74596389592649       -1.38098811711746
H            6.19720059637311       -0.13816399656285       -0.38313260177868
