 xtb: 6.7.1 (edcfbbe)
          04112512363D

 16 15  0     0  0            999 V2000
    2.4319   -0.3452   -0.3373 C   0  0  0  0  0  0  0  0  0  0  0  0
    1.3166    0.5264    0.2303 C   0  0  0  0  0  0  0  0  0  0  0  0
    0.0082   -0.2552    0.4306 C   0  0  0  0  0  0  0  0  0  0  0  0
   -1.1921    0.4360   -0.2325 C   0  0  0  0  0  0  0  0  0  0  0  0
   -2.4606   -0.2601   -0.0778 N   0  0  0  0  0  0  0  0  0  0  0  0
    2.6449   -1.1783    0.3287 H   0  0  0  0  0  0  0  0  0  0  0  0
    2.1435   -0.7437   -1.3075 H   0  0  0  0  0  0  0  0  0  0  0  0
    3.3426    0.2357   -0.4631 H   0  0  0  0  0  0  0  0  0  0  0  0
    1.6435    0.9537    1.1795 H   0  0  0  0  0  0  0  0  0  0  0  0
    1.1378    1.3584   -0.4540 H   0  0  0  0  0  0  0  0  0  0  0  0
    0.1100   -1.2557    0.0023 H   0  0  0  0  0  0  0  0  0  0  0  0
   -0.1998   -0.3777    1.4966 H   0  0  0  0  0  0  0  0  0  0  0  0
   -1.0023    0.5369   -1.3051 H   0  0  0  0  0  0  0  0  0  0  0  0
   -1.3136    1.4398    0.1843 H   0  0  0  0  0  0  0  0  0  0  0  0
   -2.6774   -0.3544    0.9090 H   0  0  0  0  0  0  0  0  0  0  0  0
   -2.3795   -1.1980   -0.4574 H   0  0  0  0  0  0  0  0  0  0  0  0
  1  2  1  0  0  0  0
  2  3  1  0  0  0  0
  3  4  1  0  0  0  0
  4  5  1  0  0  0  0
  1  6  1  0  0  0  0
  1  7  1  0  0  0  0
  1  8  1  0  0  0  0
  2  9  1  0  0  0  0
  2 10  1  0  0  0  0
  3 11  1  0  0  0  0
  3 12  1  0  0  0  0
  4 13  1  0  0  0  0
  4 14  1  0  0  0  0
  5 15  1  0  0  0  0
  5 16  1  0  0  0  0
M  END
