 xtb: 6.7.1 (edcfbbe)
          04112515563D

 33 35  0     0  0            999 V2000
   -4.7339   -0.8644    0.1787 C   0  0  0  0  0  0  0  0  0  0  0  0
   -4.0947   -2.0941    0.1013 C   0  0  0  0  0  0  0  0  0  0  0  0
   -2.7173   -2.1531    0.0003 C   0  0  0  0  0  0  0  0  0  0  0  0
   -1.9541   -0.9875   -0.0252 C   0  0  0  0  0  0  0  0  0  0  0  0
   -2.6003    0.2513    0.0532 C   0  0  0  0  0  0  0  0  0  0  0  0
   -3.9895    0.2997    0.1548 C   0  0  0  0  0  0  0  0  0  0  0  0
   -1.8318    1.5025    0.0306 C   0  0  0  0  0  0  0  0  0  0  0  0
   -2.3874    2.5980    0.0958 O   0  0  0  0  0  0  0  0  0  0  0  0
   -0.3682    1.3817   -0.0737 C   0  0  0  0  0  0  0  0  0  0  0  0
    0.3596    2.5592   -0.0804 C   0  0  0  0  0  0  0  0  0  0  0  0
    1.7496    2.5294   -0.1626 C   0  0  0  0  0  0  0  0  0  0  0  0
    2.4094    1.3334   -0.2515 C   0  0  0  0  0  0  0  0  0  0  0  0
    1.7057    0.1040   -0.2678 C   0  0  0  0  0  0  0  0  0  0  0  0
    0.2808    0.1268   -0.1629 C   0  0  0  0  0  0  0  0  0  0  0  0
   -0.4862   -1.0987   -0.1364 C   0  0  0  0  0  0  0  0  0  0  0  0
    0.0271   -2.2307   -0.1988 O   0  0  0  0  0  0  0  0  0  0  0  0
    2.3618   -1.0576   -0.3899 N   0  0  0  0  0  0  0  0  0  0  0  0
    3.7889   -1.2162   -0.5070 C   0  0  0  0  0  0  0  0  0  0  0  0
    4.5584   -0.8857    0.7993 C   0  0  0  0  0  0  0  0  0  0  0  0
    5.3880    0.2476    0.6745 O   0  0  0  0  0  0  0  0  0  0  0  0
   -5.8086   -0.8155    0.2574 H   0  0  0  0  0  0  0  0  0  0  0  0
   -4.6712   -3.0057    0.1197 H   0  0  0  0  0  0  0  0  0  0  0  0
   -2.2012   -3.0997   -0.0611 H   0  0  0  0  0  0  0  0  0  0  0  0
   -4.4597    1.2702    0.2136 H   0  0  0  0  0  0  0  0  0  0  0  0
   -0.1774    3.4929   -0.0113 H   0  0  0  0  0  0  0  0  0  0  0  0
    2.3056    3.4537   -0.1506 H   0  0  0  0  0  0  0  0  0  0  0  0
    3.4859    1.3244   -0.2841 H   0  0  0  0  0  0  0  0  0  0  0  0
    1.7822   -1.8914   -0.3290 H   0  0  0  0  0  0  0  0  0  0  0  0
    4.1652   -0.5667   -1.3039 H   0  0  0  0  0  0  0  0  0  0  0  0
    3.9691   -2.2512   -0.7927 H   0  0  0  0  0  0  0  0  0  0  0  0
    5.1447   -1.7508    1.1231 H   0  0  0  0  0  0  0  0  0  0  0  0
    3.8429   -0.6427    1.5884 H   0  0  0  0  0  0  0  0  0  0  0  0
    6.1640    0.0237    0.1426 H   0  0  0  0  0  0  0  0  0  0  0  0
  1  2  4  0  0  0  0
  2  3  4  0  0  0  0
  3  4  4  0  0  0  0
  4  5  4  0  0  0  0
  1  6  4  0  0  0  0
  5  6  4  0  0  0  0
  5  7  1  0  0  0  0
  7  8  2  0  0  0  0
  7  9  1  0  0  0  0
  9 10  4  0  0  0  0
 10 11  4  0  0  0  0
 11 12  2  0  0  0  0
 12 13  4  0  0  0  0
  9 14  4  0  0  0  0
 13 14  4  0  0  0  0
  4 15  1  0  0  0  0
 14 15  1  0  0  0  0
 15 16  2  0  0  0  0
 13 17  4  0  0  0  0
 17 18  1  0  0  0  0
 18 19  1  0  0  0  0
 19 20  1  0  0  0  0
  1 21  1  0  0  0  0
  2 22  1  0  0  0  0
  3 23  1  0  0  0  0
  6 24  1  0  0  0  0
 10 25  1  0  0  0  0
 11 26  1  0  0  0  0
 12 27  1  0  0  0  0
 17 28  1  0  0  0  0
 18 29  1  0  0  0  0
 18 30  1  0  0  0  0
 19 31  1  0  0  0  0
 19 32  1  0  0  0  0
 20 33  1  0  0  0  0
M  END
