 xtb: 6.7.1 (edcfbbe)
          04112512293D

 16 15  0     0  0            999 V2000
    2.3918   -0.3790    0.3698 C   0  0  0  0  0  0  0  0  0  0  0  0
    1.3295    0.5056   -0.2733 C   0  0  0  0  0  0  0  0  0  0  0  0
   -0.0041   -0.2334   -0.4722 C   0  0  0  0  0  0  0  0  0  0  0  0
   -1.1633    0.4482    0.2532 C   0  0  0  0  0  0  0  0  0  0  0  0
   -2.3828   -0.3367    0.1057 N   0  0  0  0  0  0  0  0  0  0  0  0
    2.5968   -1.2440   -0.2566 H   0  0  0  0  0  0  0  0  0  0  0  0
    3.3180    0.1748    0.5051 H   0  0  0  0  0  0  0  0  0  0  0  0
    2.0549   -0.7296    1.3424 H   0  0  0  0  0  0  0  0  0  0  0  0
    1.1685    1.3809    0.3596 H   0  0  0  0  0  0  0  0  0  0  0  0
    1.7019    0.8664   -1.2334 H   0  0  0  0  0  0  0  0  0  0  0  0
   -0.2480   -0.2978   -1.5345 H   0  0  0  0  0  0  0  0  0  0  0  0
    0.0724   -1.2535   -0.0954 H   0  0  0  0  0  0  0  0  0  0  0  0
   -1.2676    1.4811   -0.1247 H   0  0  0  0  0  0  0  0  0  0  0  0
   -0.9390    0.5057    1.3223 H   0  0  0  0  0  0  0  0  0  0  0  0
   -2.6291   -0.3984   -0.8768 H   0  0  0  0  0  0  0  0  0  0  0  0
   -3.1489    0.1244    0.5834 H   0  0  0  0  0  0  0  0  0  0  0  0
  1  2  1  0  0  0  0
  2  3  1  0  0  0  0
  3  4  1  0  0  0  0
  4  5  1  0  0  0  0
  1  6  1  0  0  0  0
  1  7  1  0  0  0  0
  1  8  1  0  0  0  0
  2  9  1  0  0  0  0
  2 10  1  0  0  0  0
  3 11  1  0  0  0  0
  3 12  1  0  0  0  0
  4 13  1  0  0  0  0
  4 14  1  0  0  0  0
  5 15  1  0  0  0  0
  5 16  1  0  0  0  0
M  END
