 xtb: 6.7.1 (edcfbbe)
          04112512293D

 16 15  0     0  0            999 V2000
    2.5393   -0.3600   -0.0161 C   0  0  0  0  0  0  0  0  0  0  0  0
    1.2864    0.5077   -0.0289 C   0  0  0  0  0  0  0  0  0  0  0  0
    0.0146   -0.3348    0.0179 C   0  0  0  0  0  0  0  0  0  0  0  0
   -1.2460    0.5270    0.0110 C   0  0  0  0  0  0  0  0  0  0  0  0
   -2.4349   -0.3151   -0.0363 N   0  0  0  0  0  0  0  0  0  0  0  0
    2.5745   -0.9652    0.8869 H   0  0  0  0  0  0  0  0  0  0  0  0
    2.5474   -1.0265   -0.8753 H   0  0  0  0  0  0  0  0  0  0  0  0
    3.4325    0.2587   -0.0509 H   0  0  0  0  0  0  0  0  0  0  0  0
    1.3032    1.1838    0.8294 H   0  0  0  0  0  0  0  0  0  0  0  0
    1.2778    1.1211   -0.9324 H   0  0  0  0  0  0  0  0  0  0  0  0
   -0.0190   -1.0042   -0.8427 H   0  0  0  0  0  0  0  0  0  0  0  0
    0.0203   -0.9524    0.9195 H   0  0  0  0  0  0  0  0  0  0  0  0
   -1.2528    1.1542   -0.8854 H   0  0  0  0  0  0  0  0  0  0  0  0
   -1.2275    1.1986    0.8878 H   0  0  0  0  0  0  0  0  0  0  0  0
   -3.2671    0.2637   -0.0318 H   0  0  0  0  0  0  0  0  0  0  0  0
   -2.4671   -0.9024    0.7907 H   0  0  0  0  0  0  0  0  0  0  0  0
  1  2  1  0  0  0  0
  2  3  1  0  0  0  0
  3  4  1  0  0  0  0
  4  5  1  0  0  0  0
  1  6  1  0  0  0  0
  1  7  1  0  0  0  0
  1  8  1  0  0  0  0
  2  9  1  0  0  0  0
  2 10  1  0  0  0  0
  3 11  1  0  0  0  0
  3 12  1  0  0  0  0
  4 13  1  0  0  0  0
  4 14  1  0  0  0  0
  5 15  1  0  0  0  0
  5 16  1  0  0  0  0
M  END
