20
 xtb: 6.7.1 (edcfbbe)
C           -2.36286998202056       -1.14977229192160       -0.57120721940245
C           -2.07927715711242       -0.49420131507075        0.77657481781020
C           -1.42281319820734        0.88848474697929        0.63054873064184
C           -0.14921647313043        0.82904111094167       -0.16484639609962
O            0.04033222074795        1.39175878237322       -1.23300648505615
O            0.77626220115424        0.05700571062377        0.43104896067589
C            2.04311614224179       -0.11507113828935       -0.28144286004017
C            2.90574241339778       -1.02012381505606        0.55982550871592
H           -2.99565648911798       -0.50859500303073       -1.19490270530713
H           -1.43553695520264       -1.34409844119099       -1.12369330566194
H           -2.87575046049941       -2.10754600783440       -0.44070649973241
H           -1.43585399005574       -1.14105762072669        1.38231857892600
H           -3.01324096096498       -0.36157712362512        1.33299767729992
H           -1.19076689906517        1.29746434040314        1.62046844540769
H           -2.09677368071012        1.57955637384825        0.11834181629234
H            1.82706215951240       -0.54873586114530       -1.26277528063451
H            2.49647726569585        0.87102666630041       -0.42091409026966
H            3.10819512299666       -0.57400419634565        1.53800308472605
H            2.42965267023358       -1.99443697183190        0.70434051788555
H            3.86088693120204       -1.17698822398746        0.04987335748443
