14
 xtb: 6.7.1 (edcfbbe)
C           -2.68438281066272       -0.98217582175463        0.15603695463493
C           -2.91599240857866        0.52492063085866        0.22027663777037
C           -1.76667614508745        1.39222208386163       -0.29761117118482
C           -0.48732157415722        1.35546361913380        0.51509316381809
I            0.92879495439443       -0.24430335402809       -0.06047468875490
H           -2.42238037472635       -1.30105057246621       -0.85900438716539
H           -1.87827764412141       -1.29774709058894        0.82464613411240
H           -3.59099950655077       -1.52002444185982        0.45315635326571
H           -3.13561319624523        0.81649204002509        1.25550393479523
H           -3.80855733451145        0.77456622313350       -0.36601754650356
H           -1.56000333305695        1.17430179061319       -1.35161164801583
H           -2.09601246098525        2.44104530518480       -0.26530018581034
H           -0.65529255435769        1.17883132942161        1.57800869614508
H            0.12089099452624        2.24684261569895        0.37543248179351
