 xtb: 6.7.1 (edcfbbe)
          04112517463D

 20 19  0     0  0            999 V2000
   -2.4576   -1.3416   -0.3025 C   0  0  0  0  0  0  0  0  0  0  0  0
   -2.5520    0.1297    0.0831 C   0  0  0  0  0  0  0  0  0  0  0  0
   -1.2985    0.5976    0.8285 C   0  0  0  0  0  0  0  0  0  0  0  0
   -0.0969    0.5951   -0.0810 C   0  0  0  0  0  0  0  0  0  0  0  0
   -0.0501    1.1155   -1.1771 O   0  0  0  0  0  0  0  0  0  0  0  0
    0.9292   -0.0471    0.4594 O   0  0  0  0  0  0  0  0  0  0  0  0
    2.1527   -0.1124   -0.2928 C   0  0  0  0  0  0  0  0  0  0  0  0
    3.1852   -0.8404    0.5455 C   0  0  0  0  0  0  0  0  0  0  0  0
   -1.6135   -1.5052   -0.9701 H   0  0  0  0  0  0  0  0  0  0  0  0
   -2.3230   -1.9608    0.5811 H   0  0  0  0  0  0  0  0  0  0  0  0
   -3.3629   -1.6582   -0.8133 H   0  0  0  0  0  0  0  0  0  0  0  0
   -3.4215    0.2867    0.7217 H   0  0  0  0  0  0  0  0  0  0  0  0
   -2.6696    0.7379   -0.8158 H   0  0  0  0  0  0  0  0  0  0  0  0
   -1.0872   -0.0413    1.6850 H   0  0  0  0  0  0  0  0  0  0  0  0
   -1.4424    1.6238    1.1717 H   0  0  0  0  0  0  0  0  0  0  0  0
    1.9514   -0.6343   -1.2342 H   0  0  0  0  0  0  0  0  0  0  0  0
    2.4666    0.9091   -0.5313 H   0  0  0  0  0  0  0  0  0  0  0  0
    2.8373   -1.8432    0.7749 H   0  0  0  0  0  0  0  0  0  0  0  0
    4.1176   -0.9011   -0.0058 H   0  0  0  0  0  0  0  0  0  0  0  0
    3.3520   -0.3061    1.4761 H   0  0  0  0  0  0  0  0  0  0  0  0
  1  2  1  0  0  0  0
  2  3  1  0  0  0  0
  3  4  1  0  0  0  0
  4  5  2  0  0  0  0
  4  6  1  0  0  0  0
  6  7  1  0  0  0  0
  7  8  1  0  0  0  0
  1  9  1  0  0  0  0
  1 10  1  0  0  0  0
  1 11  1  0  0  0  0
  2 12  1  0  0  0  0
  2 13  1  0  0  0  0
  3 14  1  0  0  0  0
  3 15  1  0  0  0  0
  7 16  1  0  0  0  0
  7 17  1  0  0  0  0
  8 18  1  0  0  0  0
  8 19  1  0  0  0  0
  8 20  1  0  0  0  0
M  END
