16
 xtb: 6.7.1 (edcfbbe)
C            2.42807917094877       -0.29976282057861       -0.14144246014432
C            1.01306610832760        0.20857249071485       -0.40622376127649
C            0.04759405942839       -0.15009488498002        0.72422470137950
C           -1.36166643861500        0.39316397654577        0.52849974090103
N           -2.02269432184083       -0.20946830819753       -0.64738303885229
H            2.43940972716276       -1.39174708156369       -0.04745304051220
H            3.11121489374453       -0.02722350428366       -0.95260236466172
H            2.82830329855004        0.11836520791477        0.78933529882456
H            1.02822051870151        1.29984158079660       -0.53155108167253
H            0.65544635397878       -0.21069511003696       -1.35499147348337
H            0.00572630185433       -1.24205604154756        0.83874550707734
H            0.44249806633195        0.25206945457239        1.66676415867989
H           -1.31159627360032        1.49355378868657        0.46853447176146
H           -1.96350279728579        0.15391616077590        1.41231039363457
H           -1.53048325566671        0.09726732659153       -1.48149814943317
H           -2.95096000096799        0.19419139506399       -0.73021264247386
