 xtb: 6.7.1 (edcfbbe)
          04112516443D

 20 19  0     0  0            999 V2000
   -2.7460   -1.1752   -0.0642 C   0  0  0  0  0  0  0  0  0  0  0  0
   -2.5256    0.3326   -0.0404 C   0  0  0  0  0  0  0  0  0  0  0  0
   -1.2285    0.7002    0.6826 C   0  0  0  0  0  0  0  0  0  0  0  0
   -0.0150    0.2603   -0.0962 C   0  0  0  0  0  0  0  0  0  0  0  0
    0.1120    0.3506   -1.2992 O   0  0  0  0  0  0  0  0  0  0  0  0
    0.9174   -0.2425    0.7057 O   0  0  0  0  0  0  0  0  0  0  0  0
    2.1648   -0.6637    0.1287 C   0  0  0  0  0  0  0  0  0  0  0  0
    3.1392    0.4990    0.0195 C   0  0  0  0  0  0  0  0  0  0  0  0
   -3.6784   -1.4141   -0.5686 H   0  0  0  0  0  0  0  0  0  0  0  0
   -1.9338   -1.6675   -0.5958 H   0  0  0  0  0  0  0  0  0  0  0  0
   -2.7872   -1.5723    0.9473 H   0  0  0  0  0  0  0  0  0  0  0  0
   -3.3618    0.8174    0.4637 H   0  0  0  0  0  0  0  0  0  0  0  0
   -2.4732    0.7100   -1.0633 H   0  0  0  0  0  0  0  0  0  0  0  0
   -1.1843    0.2528    1.6750 H   0  0  0  0  0  0  0  0  0  0  0  0
   -1.1611    1.7856    0.7847 H   0  0  0  0  0  0  0  0  0  0  0  0
    2.5364   -1.4312    0.8082 H   0  0  0  0  0  0  0  0  0  0  0  0
    1.9654   -1.0930   -0.8580 H   0  0  0  0  0  0  0  0  0  0  0  0
    4.0912    0.1367   -0.3547 H   0  0  0  0  0  0  0  0  0  0  0  0
    2.7511    1.2468   -0.6687 H   0  0  0  0  0  0  0  0  0  0  0  0
    3.2863    0.9566    0.9940 H   0  0  0  0  0  0  0  0  0  0  0  0
  1  2  1  0  0  0  0
  2  3  1  0  0  0  0
  3  4  1  0  0  0  0
  4  5  2  0  0  0  0
  4  6  1  0  0  0  0
  6  7  1  0  0  0  0
  7  8  1  0  0  0  0
  1  9  1  0  0  0  0
  1 10  1  0  0  0  0
  1 11  1  0  0  0  0
  2 12  1  0  0  0  0
  2 13  1  0  0  0  0
  3 14  1  0  0  0  0
  3 15  1  0  0  0  0
  7 16  1  0  0  0  0
  7 17  1  0  0  0  0
  8 18  1  0  0  0  0
  8 19  1  0  0  0  0
  8 20  1  0  0  0  0
M  END
