 xtb: 6.7.1 (edcfbbe)
          04112515533D

 20 19  0     0  0            999 V2000
   -3.3903   -1.0102    0.0610 C   0  0  0  0  0  0  0  0  0  0  0  0
   -1.9699   -0.6270    0.4551 C   0  0  0  0  0  0  0  0  0  0  0  0
   -1.3099    0.2445   -0.6235 C   0  0  0  0  0  0  0  0  0  0  0  0
    0.0702    0.6372   -0.1700 C   0  0  0  0  0  0  0  0  0  0  0  0
    0.3071    1.4806    0.6704 O   0  0  0  0  0  0  0  0  0  0  0  0
    1.0070   -0.0721   -0.7859 O   0  0  0  0  0  0  0  0  0  0  0  0
    2.3811    0.1353   -0.4172 C   0  0  0  0  0  0  0  0  0  0  0  0
    2.7739   -0.7593    0.7485 C   0  0  0  0  0  0  0  0  0  0  0  0
   -3.8400   -1.6259    0.8351 H   0  0  0  0  0  0  0  0  0  0  0  0
   -4.0017   -0.1214   -0.0720 H   0  0  0  0  0  0  0  0  0  0  0  0
   -3.3884   -1.5711   -0.8699 H   0  0  0  0  0  0  0  0  0  0  0  0
   -1.3725   -1.5291    0.6008 H   0  0  0  0  0  0  0  0  0  0  0  0
   -1.9798   -0.0734    1.3963 H   0  0  0  0  0  0  0  0  0  0  0  0
   -1.9002    1.1500   -0.7657 H   0  0  0  0  0  0  0  0  0  0  0  0
   -1.2345   -0.3062   -1.5598 H   0  0  0  0  0  0  0  0  0  0  0  0
    2.9483   -0.1103   -1.3155 H   0  0  0  0  0  0  0  0  0  0  0  0
    2.5164    1.1895   -0.1573 H   0  0  0  0  0  0  0  0  0  0  0  0
    2.5926   -1.8011    0.4987 H   0  0  0  0  0  0  0  0  0  0  0  0
    3.8272   -0.6211    0.9690 H   0  0  0  0  0  0  0  0  0  0  0  0
    2.1916   -0.4991    1.6297 H   0  0  0  0  0  0  0  0  0  0  0  0
  1  2  1  0  0  0  0
  2  3  1  0  0  0  0
  3  4  1  0  0  0  0
  4  5  2  0  0  0  0
  4  6  1  0  0  0  0
  6  7  1  0  0  0  0
  7  8  1  0  0  0  0
  1  9  1  0  0  0  0
  1 10  1  0  0  0  0
  1 11  1  0  0  0  0
  2 12  1  0  0  0  0
  2 13  1  0  0  0  0
  3 14  1  0  0  0  0
  3 15  1  0  0  0  0
  7 16  1  0  0  0  0
  7 17  1  0  0  0  0
  8 18  1  0  0  0  0
  8 19  1  0  0  0  0
  8 20  1  0  0  0  0
M  END
