22
 xtb: 6.7.1 (edcfbbe)
C            2.27330311154019        1.06793869365831        0.22337279991029
C            1.21286225505356       -0.02813588352458        0.21934804149505
C            1.74608602900460       -1.27602163545840       -0.48264730854820
N           -0.02382855408910        0.47616326002980       -0.43249500509988
C           -1.26127680761608        0.18411301487470        0.32368994867821
C           -1.58388062028729       -1.30536911543143        0.32833518998178
C           -2.40845630633374        0.98171003493472       -0.28409406268443
H            1.93567987874547        1.94270233512586        0.79023493845201
H            3.20255814928816        0.70671654979016        0.67496409626230
H            2.49981758147951        1.38679411838626       -0.80138840598915
H            0.99221814946856       -0.28849752175231        1.26812889312859
H            2.06461065117846       -1.03188696596196       -1.50259523598480
H            0.98821654045652       -2.06152474468796       -0.54445413208481
H            2.61023826902433       -1.67888750369001        0.05726437882441
H            0.04793764211069        1.48963753807712       -0.45526721304683
H           -1.14448757517277        0.50291484379357        1.37715711662458
H           -2.52411189167144       -1.47771229439438        0.86267846108009
H           -1.69673072171993       -1.68229488150840       -0.69490496210272
H           -0.80827095643309       -1.89120793586702        0.83007591850656
H           -3.32354818067831        0.83846335212543        0.29886055920062
H           -2.60489744678030        0.65949689776194       -1.31304431896658
H           -2.18088139595344        2.05376277171871       -0.29722295622718
