20
 xtb: 6.7.1 (edcfbbe)
C           -2.49551036130952       -1.04911937086967       -0.61586362130656
C           -2.52439052749080        0.31347882038905        0.07075521367937
C           -1.31754171109179        0.53187394697777        0.98032964107902
C           -0.02032604041559        0.64395883025516        0.22679675181171
O            0.09120301138984        1.06298265308325       -0.91383616926671
O            1.02821322931725        0.26553486178608        0.98498914745311
C            2.35950061937868        0.37705156740553        0.38652270045349
C            2.67329128482826       -0.83441413908152       -0.46045430065438
H           -3.37172059232718       -1.18611169367239       -1.25717522363561
H           -1.60323193228348       -1.16114860393910       -1.24186412190404
H           -2.48985752150983       -1.85722770386344        0.12378357074819
H           -3.42958949504398        0.40136397165356        0.68090537794484
H           -2.56681728222122        1.11386677517373       -0.67574761037435
H           -1.23198722765059       -0.26488361737613        1.72578240744342
H           -1.41900553305533        1.47349921038848        1.53771433069949
H            2.41235556094810        1.30653176135150       -0.18582731394488
H            3.02828132265738        0.44670374290980        1.24663353228998
H            2.61385375987481       -1.75008839426274        0.13523675816637
H            1.98879406411010       -0.91664931107978       -1.30917852651165
H            3.69271689841340       -0.74332808012862       -0.84899827358503
