20
 xtb: 6.7.1 (edcfbbe)
C           -2.45186748393189       -1.15778685396734        0.60376879055599
C           -2.56105653368093        0.13389874944211       -0.20073497033434
C           -1.30063001713030        0.40861791553697       -1.03055034779366
C           -0.10014902458864        0.61547737099105       -0.14871859570812
O           -0.05080825755164        1.42493998392716        0.76543208583716
O            0.92539906012619       -0.19080477970064       -0.47172944260442
C            2.14524164148018       -0.04550796298917        0.32675683039195
C            3.12976973593704       -1.06958281805358       -0.17799986501783
H           -3.36474487027283       -1.34205866568175        1.17818379202040
H           -2.28698296517365       -2.01708511228146       -0.05537198637084
H           -1.61685411726465       -1.11465298209074        1.31336006566726
H           -2.74391901532617        0.98209401974513        0.46788710487197
H           -3.41248742031578        0.07800061871030       -0.88682456894513
H           -1.42659406185715        1.33128789859824       -1.60963168945470
H           -1.11025961043446       -0.40876730126171       -1.73034940485261
H            2.51437987067158        0.97714334861977        0.20255698894090
H            1.88864282108460       -0.20598037978136        1.37807988049678
H            2.74105086487893       -2.08420783904459       -0.05044192567988
H            3.36067783731834       -0.90698473442900       -1.23486726845933
H            4.05855253113316       -0.98290469014237        0.39359203328953
