 xtb: 6.7.1 (edcfbbe)
          04112512363D

 16 15  0     0  0            999 V2000
    1.7936   -0.8184    0.3612 C   0  0  0  0  0  0  0  0  0  0  0  0
    1.2113    0.5662    0.0940 C   0  0  0  0  0  0  0  0  0  0  0  0
    0.0306    0.5392   -0.8867 C   0  0  0  0  0  0  0  0  0  0  0  0
   -1.3426    0.5242   -0.2107 C   0  0  0  0  0  0  0  0  0  0  0  0
   -1.5844   -0.7200    0.5086 N   0  0  0  0  0  0  0  0  0  0  0  0
    1.0262   -1.5057    0.7049 H   0  0  0  0  0  0  0  0  0  0  0  0
    2.2251   -1.2244   -0.5508 H   0  0  0  0  0  0  0  0  0  0  0  0
    2.5765   -0.7623    1.1146 H   0  0  0  0  0  0  0  0  0  0  0  0
    0.8925    1.0207    1.0354 H   0  0  0  0  0  0  0  0  0  0  0  0
    2.0026    1.1985   -0.3144 H   0  0  0  0  0  0  0  0  0  0  0  0
    0.0648    1.4259   -1.5221 H   0  0  0  0  0  0  0  0  0  0  0  0
    0.1115   -0.3382   -1.5283 H   0  0  0  0  0  0  0  0  0  0  0  0
   -2.1114    0.6047   -0.9849 H   0  0  0  0  0  0  0  0  0  0  0  0
   -1.4279    1.4155    0.4368 H   0  0  0  0  0  0  0  0  0  0  0  0
   -2.5340   -0.7292    0.8630 H   0  0  0  0  0  0  0  0  0  0  0  0
   -0.9639   -0.7746    1.3095 H   0  0  0  0  0  0  0  0  0  0  0  0
  1  2  1  0  0  0  0
  2  3  1  0  0  0  0
  3  4  1  0  0  0  0
  4  5  1  0  0  0  0
  1  6  1  0  0  0  0
  1  7  1  0  0  0  0
  1  8  1  0  0  0  0
  2  9  1  0  0  0  0
  2 10  1  0  0  0  0
  3 11  1  0  0  0  0
  3 12  1  0  0  0  0
  4 13  1  0  0  0  0
  4 14  1  0  0  0  0
  5 15  1  0  0  0  0
  5 16  1  0  0  0  0
M  END
