 xtb: 6.7.1 (edcfbbe)
          04112516443D

 20 19  0     0  0            999 V2000
   -2.6888    0.0705    1.2078 C   0  0  0  0  0  0  0  0  0  0  0  0
   -2.5247    0.0105   -0.3060 C   0  0  0  0  0  0  0  0  0  0  0  0
   -1.2324   -0.7074   -0.7034 C   0  0  0  0  0  0  0  0  0  0  0  0
   -0.0188    0.0960   -0.3105 C   0  0  0  0  0  0  0  0  0  0  0  0
    0.1259    1.2826   -0.5181 O   0  0  0  0  0  0  0  0  0  0  0  0
    0.8864   -0.6593    0.3009 O   0  0  0  0  0  0  0  0  0  0  0  0
    2.1263   -0.0549    0.7054 C   0  0  0  0  0  0  0  0  0  0  0  0
    3.1451   -0.0871   -0.4234 C   0  0  0  0  0  0  0  0  0  0  0  0
   -3.6182    0.5694    1.4688 H   0  0  0  0  0  0  0  0  0  0  0  0
   -2.7019   -0.9310    1.6314 H   0  0  0  0  0  0  0  0  0  0  0  0
   -1.8659    0.6239    1.6567 H   0  0  0  0  0  0  0  0  0  0  0  0
   -2.4992    1.0235   -0.7122 H   0  0  0  0  0  0  0  0  0  0  0  0
   -3.3716   -0.5162   -0.7463 H   0  0  0  0  0  0  0  0  0  0  0  0
   -1.2003   -0.8257   -1.7883 H   0  0  0  0  0  0  0  0  0  0  0  0
   -1.1649   -1.6896   -0.2368 H   0  0  0  0  0  0  0  0  0  0  0  0
    1.9272    0.9756    1.0155 H   0  0  0  0  0  0  0  0  0  0  0  0
    2.4577   -0.6500    1.5568 H   0  0  0  0  0  0  0  0  0  0  0  0
    2.7968    0.5190   -1.2569 H   0  0  0  0  0  0  0  0  0  0  0  0
    4.0891    0.3127   -0.0676 H   0  0  0  0  0  0  0  0  0  0  0  0
    3.2926   -1.1080   -0.7650 H   0  0  0  0  0  0  0  0  0  0  0  0
  1  2  1  0  0  0  0
  2  3  1  0  0  0  0
  3  4  1  0  0  0  0
  4  5  2  0  0  0  0
  4  6  1  0  0  0  0
  6  7  1  0  0  0  0
  7  8  1  0  0  0  0
  1  9  1  0  0  0  0
  1 10  1  0  0  0  0
  1 11  1  0  0  0  0
  2 12  1  0  0  0  0
  2 13  1  0  0  0  0
  3 14  1  0  0  0  0
  3 15  1  0  0  0  0
  7 16  1  0  0  0  0
  7 17  1  0  0  0  0
  8 18  1  0  0  0  0
  8 19  1  0  0  0  0
  8 20  1  0  0  0  0
M  END
