20
 xtb: 6.7.1 (edcfbbe)
C           -2.28601005105468       -1.47518570709605       -0.21618430091555
C           -2.48414488640609        0.03196727310854       -0.08327772066915
C           -1.35570063440963        0.69629949882637        0.70834811341693
C           -0.03039713314129        0.59641575771363        0.00340129066967
O            0.12555894238612        0.74860174442505       -1.19768586537490
O            0.98028500525989        0.34534370160145        0.85754917599396
C            2.32557710103500        0.24181731236739        0.28775257109523
C            2.57253220794990       -1.14803438972036       -0.25276757718757
H           -1.34899380036644       -1.70826023358718       -0.73521314857844
H           -2.25172634815547       -1.95361206755691        0.76868962793898
H           -3.10243489424322       -1.93133050420471       -0.78439955696891
H           -3.42835471595066        0.24036295284172        0.43048018655366
H           -2.55153352523622        0.49389259106286       -1.07409747139320
H           -1.27087569821501        0.26784755596089        1.71058558795578
H           -1.55562291899401        1.76947883389235        0.82658733061735
H            2.44430522477991        1.01073181516055       -0.47953205927765
H            2.98455342001169        0.46710164300164        1.12823825660658
H            2.43864622351574       -1.89815107220280        0.53197843637381
H            1.90022192506181       -1.37797272659711       -1.08356580277216
H            3.60305970957232       -1.21174304558032       -0.61617132036199
