 xtb: 6.7.1 (edcfbbe)
          04112515533D

 20 19  0     0  0            999 V2000
   -3.2704   -1.1619    0.3272 C   0  0  0  0  0  0  0  0  0  0  0  0
   -1.7924   -0.9277    0.0385 C   0  0  0  0  0  0  0  0  0  0  0  0
   -1.4474    0.5587    0.1197 C   0  0  0  0  0  0  0  0  0  0  0  0
   -0.0031    0.8726   -0.1693 C   0  0  0  0  0  0  0  0  0  0  0  0
    0.3857    1.9424   -0.5989 O   0  0  0  0  0  0  0  0  0  0  0  0
    0.8146   -0.1295    0.1098 O   0  0  0  0  0  0  0  0  0  0  0  0
    2.2202    0.0762   -0.1103 C   0  0  0  0  0  0  0  0  0  0  0  0
    2.9510   -1.1942    0.2784 C   0  0  0  0  0  0  0  0  0  0  0  0
   -3.5046   -2.2204    0.2571 H   0  0  0  0  0  0  0  0  0  0  0  0
   -3.5235   -0.8184    1.3271 H   0  0  0  0  0  0  0  0  0  0  0  0
   -3.8890   -0.6245   -0.3874 H   0  0  0  0  0  0  0  0  0  0  0  0
   -1.5500   -1.2991   -0.9586 H   0  0  0  0  0  0  0  0  0  0  0  0
   -1.1840   -1.4784    0.7560 H   0  0  0  0  0  0  0  0  0  0  0  0
   -1.6533    0.9305    1.1273 H   0  0  0  0  0  0  0  0  0  0  0  0
   -2.0557    1.1438   -0.5723 H   0  0  0  0  0  0  0  0  0  0  0  0
    2.3713    0.3268   -1.1654 H   0  0  0  0  0  0  0  0  0  0  0  0
    2.5429    0.9326    0.4910 H   0  0  0  0  0  0  0  0  0  0  0  0
    4.0148   -1.0608    0.1128 H   0  0  0  0  0  0  0  0  0  0  0  0
    2.7764   -1.4183    1.3265 H   0  0  0  0  0  0  0  0  0  0  0  0
    2.5956   -2.0261   -0.3221 H   0  0  0  0  0  0  0  0  0  0  0  0
  1  2  1  0  0  0  0
  2  3  1  0  0  0  0
  3  4  1  0  0  0  0
  4  5  2  0  0  0  0
  4  6  1  0  0  0  0
  6  7  1  0  0  0  0
  7  8  1  0  0  0  0
  1  9  1  0  0  0  0
  1 10  1  0  0  0  0
  1 11  1  0  0  0  0
  2 12  1  0  0  0  0
  2 13  1  0  0  0  0
  3 14  1  0  0  0  0
  3 15  1  0  0  0  0
  7 16  1  0  0  0  0
  7 17  1  0  0  0  0
  8 18  1  0  0  0  0
  8 19  1  0  0  0  0
  8 20  1  0  0  0  0
M  END
